*SPEF "IEEE 1481-1999"
*DESIGN "des"
*DATE "Fri Sep 18 12:15:38 2009"
*VENDOR "SYNOPSYS INC"
*PROGRAM "Synopsys Design Compiler cmos"
*VERSION "Z-2007.03-SP1"
*DESIGN_FLOW "SYNTHESIS"
*DIVIDER /
*DELIMITER :
*BUS_DELIMITER []
*T_UNIT 1.0 NS
*C_UNIT 1.0 PF
*R_UNIT 1.0 KOHM
*L_UNIT 1.0 HENRY

*PORTS

hclk I *L 0.000e+00 *S 0.000e+00 0.000e+00 
POR I *L 0.000e+00 *S 0.000e+00 0.000e+00 
hresetn I *L 0.000e+00 *S 0.000e+00 0.000e+00 
hsel I *L 0.000e+00 *S 0.000e+00 0.000e+00 
hwdata\[31\] I *L 0.000e+00 *S 0.000e+00 0.000e+00 
hwdata\[30\] I *L 0.000e+00 *S 0.000e+00 0.000e+00 
hwdata\[29\] I *L 0.000e+00 *S 0.000e+00 0.000e+00 
hwdata\[28\] I *L 0.000e+00 *S 0.000e+00 0.000e+00 
hwdata\[27\] I *L 0.000e+00 *S 0.000e+00 0.000e+00 
hwdata\[26\] I *L 0.000e+00 *S 0.000e+00 0.000e+00 
hwdata\[25\] I *L 0.000e+00 *S 0.000e+00 0.000e+00 
hwdata\[24\] I *L 0.000e+00 *S 0.000e+00 0.000e+00 
hwdata\[23\] I *L 0.000e+00 *S 0.000e+00 0.000e+00 
hwdata\[22\] I *L 0.000e+00 *S 0.000e+00 0.000e+00 
hwdata\[21\] I *L 0.000e+00 *S 0.000e+00 0.000e+00 
hwdata\[20\] I *L 0.000e+00 *S 0.000e+00 0.000e+00 
hwdata\[19\] I *L 0.000e+00 *S 0.000e+00 0.000e+00 
hwdata\[18\] I *L 0.000e+00 *S 0.000e+00 0.000e+00 
hwdata\[17\] I *L 0.000e+00 *S 0.000e+00 0.000e+00 
hwdata\[16\] I *L 0.000e+00 *S 0.000e+00 0.000e+00 
hwdata\[15\] I *L 0.000e+00 *S 0.000e+00 0.000e+00 
hwdata\[14\] I *L 0.000e+00 *S 0.000e+00 0.000e+00 
hwdata\[13\] I *L 0.000e+00 *S 0.000e+00 0.000e+00 
hwdata\[12\] I *L 0.000e+00 *S 0.000e+00 0.000e+00 
hwdata\[11\] I *L 0.000e+00 *S 0.000e+00 0.000e+00 
hwdata\[10\] I *L 0.000e+00 *S 0.000e+00 0.000e+00 
hwdata\[9\] I *L 0.000e+00 *S 0.000e+00 0.000e+00 
hwdata\[8\] I *L 0.000e+00 *S 0.000e+00 0.000e+00 
hwdata\[7\] I *L 0.000e+00 *S 0.000e+00 0.000e+00 
hwdata\[6\] I *L 0.000e+00 *S 0.000e+00 0.000e+00 
hwdata\[5\] I *L 0.000e+00 *S 0.000e+00 0.000e+00 
hwdata\[4\] I *L 0.000e+00 *S 0.000e+00 0.000e+00 
hwdata\[3\] I *L 0.000e+00 *S 0.000e+00 0.000e+00 
hwdata\[2\] I *L 0.000e+00 *S 0.000e+00 0.000e+00 
hwdata\[1\] I *L 0.000e+00 *S 0.000e+00 0.000e+00 
hwdata\[0\] I *L 0.000e+00 *S 0.000e+00 0.000e+00 
haddr\[9\] I *L 0.000e+00 *S 0.000e+00 0.000e+00 
haddr\[8\] I *L 0.000e+00 *S 0.000e+00 0.000e+00 
haddr\[7\] I *L 0.000e+00 *S 0.000e+00 0.000e+00 
haddr\[6\] I *L 0.000e+00 *S 0.000e+00 0.000e+00 
haddr\[5\] I *L 0.000e+00 *S 0.000e+00 0.000e+00 
haddr\[4\] I *L 0.000e+00 *S 0.000e+00 0.000e+00 
haddr\[3\] I *L 0.000e+00 *S 0.000e+00 0.000e+00 
haddr\[2\] I *L 0.000e+00 *S 0.000e+00 0.000e+00 
haddr\[1\] I *L 0.000e+00 *S 0.000e+00 0.000e+00 
haddr\[0\] I *L 0.000e+00 *S 0.000e+00 0.000e+00 
hwrite I *L 0.000e+00 *S 0.000e+00 0.000e+00 
htrans\[1\] I *L 0.000e+00 *S 0.000e+00 0.000e+00 
htrans\[0\] I *L 0.000e+00 *S 0.000e+00 0.000e+00 
hsize\[2\] I *L 0.000e+00 *S 0.000e+00 0.000e+00 
hsize\[1\] I *L 0.000e+00 *S 0.000e+00 0.000e+00 
hsize\[0\] I *L 0.000e+00 *S 0.000e+00 0.000e+00 
hburst\[2\] I *L 0.000e+00 *S 0.000e+00 0.000e+00 
hburst\[1\] I *L 0.000e+00 *S 0.000e+00 0.000e+00 
hburst\[0\] I *L 0.000e+00 *S 0.000e+00 0.000e+00 
hready I *L 0.000e+00 *S 0.000e+00 0.000e+00 
hready_resp O *L 0.000e+00 *S 5.325e-02 4.194e-02 
hresp\[1\] O *L 0.000e+00 *S 2.917e-02 2.490e-02 
hresp\[0\] O *L 0.000e+00 *S 2.917e-02 2.490e-02 
hrdata\[31\] O *L 0.000e+00 *S 3.061e-02 2.633e-02 
hrdata\[30\] O *L 0.000e+00 *S 3.061e-02 2.633e-02 
hrdata\[29\] O *L 0.000e+00 *S 3.061e-02 2.633e-02 
hrdata\[28\] O *L 0.000e+00 *S 3.061e-02 2.633e-02 
hrdata\[27\] O *L 0.000e+00 *S 3.061e-02 2.633e-02 
hrdata\[26\] O *L 0.000e+00 *S 3.061e-02 2.633e-02 
hrdata\[25\] O *L 0.000e+00 *S 3.061e-02 2.633e-02 
hrdata\[24\] O *L 0.000e+00 *S 3.061e-02 2.633e-02 
hrdata\[23\] O *L 0.000e+00 *S 3.061e-02 2.633e-02 
hrdata\[22\] O *L 0.000e+00 *S 3.061e-02 2.633e-02 
hrdata\[21\] O *L 0.000e+00 *S 3.061e-02 2.633e-02 
hrdata\[20\] O *L 0.000e+00 *S 3.061e-02 2.633e-02 
hrdata\[19\] O *L 0.000e+00 *S 3.061e-02 2.633e-02 
hrdata\[18\] O *L 0.000e+00 *S 3.061e-02 2.633e-02 
hrdata\[17\] O *L 0.000e+00 *S 3.061e-02 2.633e-02 
hrdata\[16\] O *L 0.000e+00 *S 3.061e-02 2.633e-02 
hrdata\[15\] O *L 0.000e+00 *S 3.061e-02 2.633e-02 
hrdata\[14\] O *L 0.000e+00 *S 3.061e-02 2.633e-02 
hrdata\[13\] O *L 0.000e+00 *S 3.061e-02 2.633e-02 
hrdata\[12\] O *L 0.000e+00 *S 3.061e-02 2.633e-02 
hrdata\[11\] O *L 0.000e+00 *S 3.061e-02 2.633e-02 
hrdata\[10\] O *L 0.000e+00 *S 3.061e-02 2.633e-02 
hrdata\[9\] O *L 0.000e+00 *S 3.061e-02 2.633e-02 
hrdata\[8\] O *L 0.000e+00 *S 3.061e-02 2.633e-02 
hrdata\[7\] O *L 0.000e+00 *S 5.234e-02 3.716e-02 
hrdata\[6\] O *L 0.000e+00 *S 5.234e-02 3.716e-02 
hrdata\[5\] O *L 0.000e+00 *S 5.234e-02 3.716e-02 
hrdata\[4\] O *L 0.000e+00 *S 5.234e-02 3.716e-02 
hrdata\[3\] O *L 0.000e+00 *S 5.234e-02 3.716e-02 
hrdata\[2\] O *L 0.000e+00 *S 5.234e-02 3.716e-02 
hrdata\[1\] O *L 0.000e+00 *S 5.234e-02 3.716e-02 
hrdata\[0\] O *L 0.000e+00 *S 5.234e-02 3.716e-02 
Test_Mode I *L 0.000e+00 *S 0.000e+00 0.000e+00 
Test_Se I *L 0.000e+00 *S 0.000e+00 0.000e+00 
si0 I *L 0.000e+00 *S 0.000e+00 0.000e+00 
si1 I *L 0.000e+00 *S 0.000e+00 0.000e+00 
si2 I *L 0.000e+00 *S 0.000e+00 0.000e+00 
si3 I *L 0.000e+00 *S 0.000e+00 0.000e+00 
so0 O *L 0.000e+00 *S 3.089e-02 3.692e-02 
so1 O *L 0.000e+00 *S 3.089e-02 3.692e-02 
so2 O *L 0.000e+00 *S 3.089e-02 3.692e-02 
so3 O *L 0.000e+00 *S 3.089e-02 3.692e-02 

*R_NET hwdata\[31\] 7.764e-03
*DRIVER hwdata\[31\]
*CELL NULL
*C2_R1_C1 3.882e-03 0.000e+00 3.882e-03 
*LOADS
*RC U223:I1 0.000e+00
*END

*R_NET hwdata\[30\] 7.764e-03
*DRIVER hwdata\[30\]
*CELL NULL
*C2_R1_C1 3.882e-03 0.000e+00 3.882e-03 
*LOADS
*RC U222:I1 0.000e+00
*END

*R_NET hwdata\[29\] 7.764e-03
*DRIVER hwdata\[29\]
*CELL NULL
*C2_R1_C1 3.882e-03 0.000e+00 3.882e-03 
*LOADS
*RC U221:I1 0.000e+00
*END

*R_NET hwdata\[28\] 7.764e-03
*DRIVER hwdata\[28\]
*CELL NULL
*C2_R1_C1 3.882e-03 0.000e+00 3.882e-03 
*LOADS
*RC U220:I1 0.000e+00
*END

*R_NET hwdata\[27\] 7.764e-03
*DRIVER hwdata\[27\]
*CELL NULL
*C2_R1_C1 3.882e-03 0.000e+00 3.882e-03 
*LOADS
*RC U219:I1 0.000e+00
*END

*R_NET hwdata\[26\] 7.764e-03
*DRIVER hwdata\[26\]
*CELL NULL
*C2_R1_C1 3.882e-03 0.000e+00 3.882e-03 
*LOADS
*RC U218:I1 0.000e+00
*END

*R_NET hwdata\[25\] 7.764e-03
*DRIVER hwdata\[25\]
*CELL NULL
*C2_R1_C1 3.882e-03 0.000e+00 3.882e-03 
*LOADS
*RC U217:I1 0.000e+00
*END

*R_NET hwdata\[24\] 7.764e-03
*DRIVER hwdata\[24\]
*CELL NULL
*C2_R1_C1 3.882e-03 0.000e+00 3.882e-03 
*LOADS
*RC U216:I1 0.000e+00
*END

*R_NET hwdata\[23\] 7.764e-03
*DRIVER hwdata\[23\]
*CELL NULL
*C2_R1_C1 3.882e-03 0.000e+00 3.882e-03 
*LOADS
*RC U215:I1 0.000e+00
*END

*R_NET hwdata\[22\] 7.764e-03
*DRIVER hwdata\[22\]
*CELL NULL
*C2_R1_C1 3.882e-03 0.000e+00 3.882e-03 
*LOADS
*RC U214:I1 0.000e+00
*END

*R_NET hwdata\[21\] 7.764e-03
*DRIVER hwdata\[21\]
*CELL NULL
*C2_R1_C1 3.882e-03 0.000e+00 3.882e-03 
*LOADS
*RC U213:I1 0.000e+00
*END

*R_NET hwdata\[20\] 7.764e-03
*DRIVER hwdata\[20\]
*CELL NULL
*C2_R1_C1 3.882e-03 0.000e+00 3.882e-03 
*LOADS
*RC U212:I1 0.000e+00
*END

*R_NET hwdata\[19\] 7.764e-03
*DRIVER hwdata\[19\]
*CELL NULL
*C2_R1_C1 3.882e-03 0.000e+00 3.882e-03 
*LOADS
*RC U211:I1 0.000e+00
*END

*R_NET hwdata\[18\] 7.764e-03
*DRIVER hwdata\[18\]
*CELL NULL
*C2_R1_C1 3.882e-03 0.000e+00 3.882e-03 
*LOADS
*RC U210:I1 0.000e+00
*END

*R_NET hwdata\[17\] 7.764e-03
*DRIVER hwdata\[17\]
*CELL NULL
*C2_R1_C1 3.882e-03 0.000e+00 3.882e-03 
*LOADS
*RC U209:I1 0.000e+00
*END

*R_NET hwdata\[16\] 7.764e-03
*DRIVER hwdata\[16\]
*CELL NULL
*C2_R1_C1 3.882e-03 0.000e+00 3.882e-03 
*LOADS
*RC U208:I1 0.000e+00
*END

*R_NET hwdata\[15\] 7.764e-03
*DRIVER hwdata\[15\]
*CELL NULL
*C2_R1_C1 3.882e-03 0.000e+00 3.882e-03 
*LOADS
*RC U207:I1 0.000e+00
*END

*R_NET hwdata\[14\] 7.764e-03
*DRIVER hwdata\[14\]
*CELL NULL
*C2_R1_C1 3.882e-03 0.000e+00 3.882e-03 
*LOADS
*RC U206:I1 0.000e+00
*END

*R_NET hwdata\[13\] 7.764e-03
*DRIVER hwdata\[13\]
*CELL NULL
*C2_R1_C1 3.882e-03 0.000e+00 3.882e-03 
*LOADS
*RC U205:I1 0.000e+00
*END

*R_NET hwdata\[12\] 7.764e-03
*DRIVER hwdata\[12\]
*CELL NULL
*C2_R1_C1 3.882e-03 0.000e+00 3.882e-03 
*LOADS
*RC U204:I1 0.000e+00
*END

*R_NET hwdata\[11\] 7.764e-03
*DRIVER hwdata\[11\]
*CELL NULL
*C2_R1_C1 3.882e-03 0.000e+00 3.882e-03 
*LOADS
*RC U203:I1 0.000e+00
*END

*R_NET hwdata\[10\] 7.764e-03
*DRIVER hwdata\[10\]
*CELL NULL
*C2_R1_C1 3.882e-03 0.000e+00 3.882e-03 
*LOADS
*RC U202:I1 0.000e+00
*END

*R_NET hwdata\[9\] 7.764e-03
*DRIVER hwdata\[9\]
*CELL NULL
*C2_R1_C1 3.882e-03 0.000e+00 3.882e-03 
*LOADS
*RC U201:I1 0.000e+00
*END

*R_NET hwdata\[8\] 7.764e-03
*DRIVER hwdata\[8\]
*CELL NULL
*C2_R1_C1 3.882e-03 0.000e+00 3.882e-03 
*LOADS
*RC U200:I1 0.000e+00
*END

*R_NET hwdata\[7\] 7.764e-03
*DRIVER hwdata\[7\]
*CELL NULL
*C2_R1_C1 3.882e-03 0.000e+00 3.882e-03 
*LOADS
*RC U199:I1 0.000e+00
*END

*R_NET hwdata\[6\] 7.764e-03
*DRIVER hwdata\[6\]
*CELL NULL
*C2_R1_C1 3.882e-03 0.000e+00 3.882e-03 
*LOADS
*RC U198:I1 0.000e+00
*END

*R_NET hwdata\[5\] 7.764e-03
*DRIVER hwdata\[5\]
*CELL NULL
*C2_R1_C1 3.882e-03 0.000e+00 3.882e-03 
*LOADS
*RC U197:I1 0.000e+00
*END

*R_NET hwdata\[4\] 7.764e-03
*DRIVER hwdata\[4\]
*CELL NULL
*C2_R1_C1 3.882e-03 0.000e+00 3.882e-03 
*LOADS
*RC U196:I1 0.000e+00
*END

*R_NET hwdata\[3\] 7.764e-03
*DRIVER hwdata\[3\]
*CELL NULL
*C2_R1_C1 3.882e-03 0.000e+00 3.882e-03 
*LOADS
*RC U195:I1 0.000e+00
*END

*R_NET hwdata\[2\] 7.764e-03
*DRIVER hwdata\[2\]
*CELL NULL
*C2_R1_C1 3.882e-03 0.000e+00 3.882e-03 
*LOADS
*RC U194:I1 0.000e+00
*END

*R_NET hwdata\[1\] 7.764e-03
*DRIVER hwdata\[1\]
*CELL NULL
*C2_R1_C1 3.882e-03 0.000e+00 3.882e-03 
*LOADS
*RC U193:I1 0.000e+00
*END

*R_NET hwdata\[0\] 7.764e-03
*DRIVER hwdata\[0\]
*CELL NULL
*C2_R1_C1 3.882e-03 0.000e+00 3.882e-03 
*LOADS
*RC U192:I1 0.000e+00
*END

*R_NET haddr\[9\] 9.884e-03
*DRIVER haddr\[9\]
*CELL NULL
*C2_R1_C1 4.942e-03 0.000e+00 4.942e-03 
*LOADS
*RC U184:I2 0.000e+00
*END

*R_NET haddr\[8\] 9.486e-03
*DRIVER haddr\[8\]
*CELL NULL
*C2_R1_C1 4.743e-03 0.000e+00 4.743e-03 
*LOADS
*RC U184:I3 0.000e+00
*END

*R_NET haddr\[7\] 1.052e-02
*DRIVER haddr\[7\]
*CELL NULL
*C2_R1_C1 5.259e-03 0.000e+00 5.259e-03 
*LOADS
*RC U184:I1 0.000e+00
*END

*R_NET haddr\[6\] 9.379e-03
*DRIVER haddr\[6\]
*CELL NULL
*C2_R1_C1 4.689e-03 0.000e+00 4.689e-03 
*LOADS
*RC U127:I1 0.000e+00
*END

*R_NET haddr\[5\] 8.698e-03
*DRIVER haddr\[5\]
*CELL NULL
*C2_R1_C1 4.349e-03 0.000e+00 4.349e-03 
*LOADS
*RC U127:I2 0.000e+00
*END

*R_NET haddr\[4\] 1.668e-02
*DRIVER haddr\[4\]
*CELL NULL
*C2_R1_C1 8.338e-03 0.000e+00 8.338e-03 
*LOADS
*RC U183:B1 0.000e+00
*END

*R_NET haddr\[3\] 4.175e-02
*DRIVER haddr\[3\]
*CELL NULL
*C2_R1_C1 2.088e-02 0.000e+00 2.088e-02 
*LOADS
*RC U190:I 0.000e+00
*RC U182:I3 0.000e+00
*RC U180:I3 0.000e+00
*END

*R_NET haddr\[2\] 4.089e-02
*DRIVER haddr\[2\]
*CELL NULL
*C2_R1_C1 2.045e-02 0.000e+00 2.045e-02 
*LOADS
*RC U191:I 0.000e+00
*RC U182:I1 0.000e+00
*RC U181:I3 0.000e+00
*END

*R_NET haddr\[1\] 1.052e-02
*DRIVER haddr\[1\]
*CELL NULL
*C2_R1_C1 5.259e-03 0.000e+00 5.259e-03 
*LOADS
*RC U179:I1 0.000e+00
*END

*R_NET haddr\[0\] 9.884e-03
*DRIVER haddr\[0\]
*CELL NULL
*C2_R1_C1 4.942e-03 0.000e+00 4.942e-03 
*LOADS
*RC U179:I2 0.000e+00
*END

*R_NET htrans\[1\] 1.007e-02
*DRIVER htrans\[1\]
*CELL NULL
*C2_R1_C1 5.035e-03 0.000e+00 5.035e-03 
*LOADS
*RC U183:I1 0.000e+00
*END

*R_NET hresp\[1\] 5.705e-03
*DRIVER U122:O
*CELL INV2
*C2_R1_C1 2.852e-03 0.000e+00 2.852e-03 
*LOADS
*RC hresp\[1\] 0.000e+00
*END

*R_NET hresp\[0\] 5.705e-03
*DRIVER U121:O
*CELL INV2
*C2_R1_C1 2.852e-03 0.000e+00 2.852e-03 
*LOADS
*RC hresp\[0\] 0.000e+00
*END

*R_NET hrdata\[31\] 5.705e-03
*DRIVER U171:O
*CELL AN2
*C2_R1_C1 2.852e-03 0.000e+00 2.852e-03 
*LOADS
*RC hrdata\[31\] 0.000e+00
*END

*R_NET hrdata\[30\] 5.705e-03
*DRIVER U170:O
*CELL AN2
*C2_R1_C1 2.852e-03 0.000e+00 2.852e-03 
*LOADS
*RC hrdata\[30\] 0.000e+00
*END

*R_NET hrdata\[29\] 5.705e-03
*DRIVER U169:O
*CELL AN2
*C2_R1_C1 2.852e-03 0.000e+00 2.852e-03 
*LOADS
*RC hrdata\[29\] 0.000e+00
*END

*R_NET hrdata\[28\] 5.705e-03
*DRIVER U168:O
*CELL AN2
*C2_R1_C1 2.852e-03 0.000e+00 2.852e-03 
*LOADS
*RC hrdata\[28\] 0.000e+00
*END

*R_NET hrdata\[27\] 5.705e-03
*DRIVER U167:O
*CELL AN2
*C2_R1_C1 2.852e-03 0.000e+00 2.852e-03 
*LOADS
*RC hrdata\[27\] 0.000e+00
*END

*R_NET hrdata\[26\] 5.705e-03
*DRIVER U166:O
*CELL AN2
*C2_R1_C1 2.852e-03 0.000e+00 2.852e-03 
*LOADS
*RC hrdata\[26\] 0.000e+00
*END

*R_NET hrdata\[25\] 5.705e-03
*DRIVER U165:O
*CELL AN2
*C2_R1_C1 2.852e-03 0.000e+00 2.852e-03 
*LOADS
*RC hrdata\[25\] 0.000e+00
*END

*R_NET hrdata\[24\] 5.705e-03
*DRIVER U164:O
*CELL AN2
*C2_R1_C1 2.852e-03 0.000e+00 2.852e-03 
*LOADS
*RC hrdata\[24\] 0.000e+00
*END

*R_NET hrdata\[23\] 5.705e-03
*DRIVER U163:O
*CELL AN2
*C2_R1_C1 2.852e-03 0.000e+00 2.852e-03 
*LOADS
*RC hrdata\[23\] 0.000e+00
*END

*R_NET hrdata\[22\] 5.705e-03
*DRIVER U162:O
*CELL AN2
*C2_R1_C1 2.852e-03 0.000e+00 2.852e-03 
*LOADS
*RC hrdata\[22\] 0.000e+00
*END

*R_NET hrdata\[21\] 5.705e-03
*DRIVER U161:O
*CELL AN2
*C2_R1_C1 2.852e-03 0.000e+00 2.852e-03 
*LOADS
*RC hrdata\[21\] 0.000e+00
*END

*R_NET hrdata\[20\] 5.705e-03
*DRIVER U160:O
*CELL AN2
*C2_R1_C1 2.852e-03 0.000e+00 2.852e-03 
*LOADS
*RC hrdata\[20\] 0.000e+00
*END

*R_NET hrdata\[19\] 5.705e-03
*DRIVER U159:O
*CELL AN2
*C2_R1_C1 2.852e-03 0.000e+00 2.852e-03 
*LOADS
*RC hrdata\[19\] 0.000e+00
*END

*R_NET hrdata\[18\] 5.705e-03
*DRIVER U158:O
*CELL AN2
*C2_R1_C1 2.852e-03 0.000e+00 2.852e-03 
*LOADS
*RC hrdata\[18\] 0.000e+00
*END

*R_NET hrdata\[17\] 5.705e-03
*DRIVER U157:O
*CELL AN2
*C2_R1_C1 2.852e-03 0.000e+00 2.852e-03 
*LOADS
*RC hrdata\[17\] 0.000e+00
*END

*R_NET hrdata\[16\] 5.705e-03
*DRIVER U156:O
*CELL AN2
*C2_R1_C1 2.852e-03 0.000e+00 2.852e-03 
*LOADS
*RC hrdata\[16\] 0.000e+00
*END

*R_NET hrdata\[15\] 5.705e-03
*DRIVER U155:O
*CELL AN2
*C2_R1_C1 2.852e-03 0.000e+00 2.852e-03 
*LOADS
*RC hrdata\[15\] 0.000e+00
*END

*R_NET hrdata\[14\] 5.705e-03
*DRIVER U154:O
*CELL AN2
*C2_R1_C1 2.852e-03 0.000e+00 2.852e-03 
*LOADS
*RC hrdata\[14\] 0.000e+00
*END

*R_NET hrdata\[13\] 5.705e-03
*DRIVER U153:O
*CELL AN2
*C2_R1_C1 2.852e-03 0.000e+00 2.852e-03 
*LOADS
*RC hrdata\[13\] 0.000e+00
*END

*R_NET hrdata\[12\] 5.705e-03
*DRIVER U152:O
*CELL AN2
*C2_R1_C1 2.852e-03 0.000e+00 2.852e-03 
*LOADS
*RC hrdata\[12\] 0.000e+00
*END

*R_NET hrdata\[11\] 5.705e-03
*DRIVER U151:O
*CELL AN2
*C2_R1_C1 2.852e-03 0.000e+00 2.852e-03 
*LOADS
*RC hrdata\[11\] 0.000e+00
*END

*R_NET hrdata\[10\] 5.705e-03
*DRIVER U150:O
*CELL AN2
*C2_R1_C1 2.852e-03 0.000e+00 2.852e-03 
*LOADS
*RC hrdata\[10\] 0.000e+00
*END

*R_NET hrdata\[9\] 5.705e-03
*DRIVER U173:O
*CELL AN2
*C2_R1_C1 2.852e-03 0.000e+00 2.852e-03 
*LOADS
*RC hrdata\[9\] 0.000e+00
*END

*R_NET hrdata\[8\] 5.705e-03
*DRIVER U172:O
*CELL AN2
*C2_R1_C1 2.852e-03 0.000e+00 2.852e-03 
*LOADS
*RC hrdata\[8\] 0.000e+00
*END

*R_NET hrdata\[7\] 5.705e-03
*DRIVER U149:O
*CELL MOAI1
*C2_R1_C1 2.852e-03 0.000e+00 2.852e-03 
*LOADS
*RC hrdata\[7\] 0.000e+00
*END

*R_NET hrdata\[6\] 5.705e-03
*DRIVER U148:O
*CELL MOAI1
*C2_R1_C1 2.852e-03 0.000e+00 2.852e-03 
*LOADS
*RC hrdata\[6\] 0.000e+00
*END

*R_NET hrdata\[5\] 5.705e-03
*DRIVER U147:O
*CELL MOAI1
*C2_R1_C1 2.852e-03 0.000e+00 2.852e-03 
*LOADS
*RC hrdata\[5\] 0.000e+00
*END

*R_NET hrdata\[4\] 5.705e-03
*DRIVER U146:O
*CELL MOAI1
*C2_R1_C1 2.852e-03 0.000e+00 2.852e-03 
*LOADS
*RC hrdata\[4\] 0.000e+00
*END

*R_NET hrdata\[3\] 5.705e-03
*DRIVER U145:O
*CELL MOAI1
*C2_R1_C1 2.852e-03 0.000e+00 2.852e-03 
*LOADS
*RC hrdata\[3\] 0.000e+00
*END

*R_NET hrdata\[2\] 5.705e-03
*DRIVER U144:O
*CELL MOAI1
*C2_R1_C1 2.852e-03 0.000e+00 2.852e-03 
*LOADS
*RC hrdata\[2\] 0.000e+00
*END

*R_NET hrdata\[1\] 5.705e-03
*DRIVER U143:O
*CELL MOAI1
*C2_R1_C1 2.852e-03 0.000e+00 2.852e-03 
*LOADS
*RC hrdata\[1\] 0.000e+00
*END

*R_NET hrdata\[0\] 5.705e-03
*DRIVER U142:O
*CELL MOAI1
*C2_R1_C1 2.852e-03 0.000e+00 2.852e-03 
*LOADS
*RC hrdata\[0\] 0.000e+00
*END

*R_NET desctrl_sel 3.085e-02
*DRIVER desctrl_sel_reg:Q
*CELL QDFZRBS
*C2_R1_C1 1.543e-02 0.000e+00 1.543e-02 
*LOADS
*RC desdat_sel_d1_reg:TD 0.000e+00
*RC U141:I2 0.000e+00
*RC U125:I3 0.000e+00
*END

*R_NET rw 3.569e-02
*DRIVER rw_reg:Q
*CELL DFZSBN
*C2_R1_C1 1.785e-02 0.000e+00 1.785e-02 
*LOADS
*RC U141:I1 0.000e+00
*RC U124:I1 0.000e+00
*RC u_des_spares_0/SPARE_UF01:TD 0.000e+00
*END

*R_NET desctrl_1 4.570e-02
*DRIVER desctrl_reg_1:Q
*CELL DFZRBS
*C2_R1_C1 2.285e-02 0.000e+00 2.285e-02 
*LOADS
*RC desctrl_reg_2:TD 0.000e+00
*RC des_cop_unit/U501:I3 0.000e+00
*RC des_cop_unit/U152:I3 0.000e+00
*RC des_cop_unit/U101:I1 0.000e+00
*END

*R_NET desctrl_0 4.410e-02
*DRIVER desctrl_reg_0:Q
*CELL DFZRBS
*C2_R1_C1 2.205e-02 0.000e+00 2.205e-02 
*LOADS
*RC desctrl_reg_1:TD 0.000e+00
*RC des_cop_unit/U501:I1 0.000e+00
*RC des_cop_unit/U152:I1 0.000e+00
*RC des_cop_unit/U101:I2 0.000e+00
*END

*R_NET run_delay 1.905e-02
*DRIVER run_delay_reg:Q
*CELL QDFZRBS
*C2_R1_C1 9.526e-03 0.000e+00 9.526e-03 
*LOADS
*RC rw_reg:TD 0.000e+00
*RC U224:I1 0.000e+00
*END

*R_NET clr_ptr 1.031e-01
*DRIVER U224:O
*CELL OR2P
*C2_R1_C1 5.155e-02 0.000e+00 5.155e-02 
*LOADS
*RC desdat_unit/U28:I 0.000e+00
*RC desiv_unit/U21:I 0.000e+00
*RC deskey_unit/U63:A1 0.000e+00
*RC deskey_unit/U47:I 0.000e+00
*RC deskey_unit/U40:I1 0.000e+00
*RC deskey_unit/U30:I2 0.000e+00
*END

*R_NET desiv_sel 1.577e-02
*DRIVER desiv_sel_reg:Q
*CELL QDFZRBS
*C2_R1_C1 7.886e-03 0.000e+00 7.886e-03 
*LOADS
*RC U175:I1 0.000e+00
*RC desiv_unit/clk_gate_obs/U1:TD 0.000e+00
*END

*R_NET desiv_wr 3.947e-02
*DRIVER U175:O
*CELL AN2
*C2_R1_C1 1.973e-02 0.000e+00 1.973e-02 
*LOADS
*RC desiv_unit/U127:B2 0.000e+00
*RC desiv_unit/U23:B1 0.000e+00
*RC desiv_unit/U19:I 0.000e+00
*END

*R_NET deskey_sel 1.577e-02
*DRIVER deskey_sel_reg:Q
*CELL QDFZRBS
*C2_R1_C1 7.886e-03 0.000e+00 7.886e-03 
*LOADS
*RC U178:I1 0.000e+00
*RC deskey_unit/clk_gate_obs/U1:TD 0.000e+00
*END

*R_NET deskey_wr 3.176e-02
*DRIVER U178:O
*CELL AN2
*C2_R1_C1 1.588e-02 0.000e+00 1.588e-02 
*LOADS
*RC deskey_unit/U37:I 0.000e+00
*RC deskey_unit/U36:I1 0.000e+00
*END

*R_NET desdat_rd 1.559e-02
*DRIVER U129:O
*CELL NR2
*C2_R1_C1 7.794e-03 0.000e+00 7.794e-03 
*LOADS
*RC desdat_unit/U25:I 0.000e+00
*END

*R_NET desdat_wr 5.294e-02
*DRIVER U124:O
*CELL NR2P
*C2_R1_C1 2.647e-02 0.000e+00 2.647e-02 
*LOADS
*RC desdat_unit/U166:I1 0.000e+00
*RC desdat_unit/U96:B1 0.000e+00
*RC desdat_unit/U29:I1 0.000e+00
*RC desdat_unit/U26:I 0.000e+00
*END

*R_NET des_start 1.559e-02
*DRIVER U234:O
*CELL AN2
*C2_R1_C1 7.794e-03 0.000e+00 7.794e-03 
*LOADS
*RC des_cop_unit/U540:I 0.000e+00
*END

*R_NET desdat_full 1.576e-02
*DRIVER desdat_unit/full_pulse_reg:Q
*CELL QDFZRBS
*C2_R1_C1 7.879e-03 0.000e+00 7.879e-03 
*LOADS
*RC desdat_unit/full_reg:TD 0.000e+00
*RC U234:I1 0.000e+00
*END

*R_NET nextiv_ready 1.001e-02
*DRIVER U176:O
*CELL NR2
*C2_R1_C1 5.006e-03 0.000e+00 5.006e-03 
*LOADS
*RC desiv_unit/U22:I1 0.000e+00
*END

*R_NET nextiv_ready_en 1.959e-02
*DRIVER nextiv_ready_en_reg:Q
*CELL QDFZRBS
*C2_R1_C1 9.795e-03 0.000e+00 9.795e-03 
*LOADS
*RC run_delay_reg:TD 0.000e+00
*RC U177:A1 0.000e+00
*END

*R_NET desdat_ready 4.569e-02
*DRIVER des_cop_unit/U74:O
*CELL AN2B1
*C2_R1_C1 2.285e-02 0.000e+00 2.285e-02 
*LOADS
*RC nextiv_ready_en_reg:D 0.000e+00
*RC U130:I 0.000e+00
*RC desdat_unit/U27:I1 0.000e+00
*END

*R_NET N19 1.035e-02
*DRIVER U232:O
*CELL MOAI1
*C2_R1_C1 5.177e-03 0.000e+00 5.177e-03 
*LOADS
*RC desctrl_reg_0:D 0.000e+00
*END

*R_NET N20 1.035e-02
*DRIVER U227:O
*CELL MOAI1
*C2_R1_C1 5.177e-03 0.000e+00 5.177e-03 
*LOADS
*RC desctrl_reg_1:D 0.000e+00
*END

*R_NET N21 1.035e-02
*DRIVER U228:O
*CELL MOAI1
*C2_R1_C1 5.177e-03 0.000e+00 5.177e-03 
*LOADS
*RC desctrl_reg_2:D 0.000e+00
*END

*R_NET N22 1.035e-02
*DRIVER U229:O
*CELL MOAI1
*C2_R1_C1 5.177e-03 0.000e+00 5.177e-03 
*LOADS
*RC desctrl_reg_3:D 0.000e+00
*END

*R_NET N23 1.035e-02
*DRIVER U230:O
*CELL MOAI1
*C2_R1_C1 5.177e-03 0.000e+00 5.177e-03 
*LOADS
*RC desctrl_reg_4:D 0.000e+00
*END

*R_NET N24 1.035e-02
*DRIVER U231:O
*CELL MOAI1
*C2_R1_C1 5.177e-03 0.000e+00 5.177e-03 
*LOADS
*RC desctrl_reg_5:D 0.000e+00
*END

*R_NET N25 1.035e-02
*DRIVER U226:O
*CELL MOAI1
*C2_R1_C1 5.177e-03 0.000e+00 5.177e-03 
*LOADS
*RC desctrl_reg_6:D 0.000e+00
*END

*R_NET N26 9.114e-03
*DRIVER U131:O
*CELL ND2
*C2_R1_C1 4.557e-03 0.000e+00 4.557e-03 
*LOADS
*RC POWERGATING_hclk_N26_0/latch:D 0.000e+00
*END

*R_NET N27 1.035e-02
*DRIVER U233:O
*CELL AN2
*C2_R1_C1 5.177e-03 0.000e+00 5.177e-03 
*LOADS
*RC desctrl_reg_7:D 0.000e+00
*END

*R_NET desctrl_sel_d1 1.801e-02
*DRIVER desctrl_sel_d1_reg:Q
*CELL QDFZRBS
*C2_R1_C1 9.004e-03 0.000e+00 9.004e-03 
*LOADS
*RC desctrl_sel_reg:TD 0.000e+00
*RC U225:I1 0.000e+00
*END

*R_NET desdat_sel_d1 1.593e-02
*DRIVER desdat_sel_d1_reg:Q
*CELL QDFZRBS
*C2_R1_C1 7.964e-03 0.000e+00 7.964e-03 
*LOADS
*RC desdat_sel_reg:TD 0.000e+00
*RC U186:B1 0.000e+00
*END

*R_NET deskey_sel_d1 1.593e-02
*DRIVER deskey_sel_d1_reg:Q
*CELL QDFZRBS
*C2_R1_C1 7.964e-03 0.000e+00 7.964e-03 
*LOADS
*RC deskey_sel_reg:TD 0.000e+00
*RC U185:B1 0.000e+00
*END

*R_NET desiv_sel_d1 1.593e-02
*DRIVER desiv_sel_d1_reg:Q
*CELL QDFZRBS
*C2_R1_C1 7.964e-03 0.000e+00 7.964e-03 
*LOADS
*RC desiv_sel_reg:TD 0.000e+00
*RC U187:B1 0.000e+00
*END

*R_NET N31 2.074e-02
*DRIVER U139:O
*CELL NR2P
*C2_R1_C1 1.037e-02 0.000e+00 1.037e-02 
*LOADS
*RC hwrite_d1_reg:D 0.000e+00
*RC U138:B1 0.000e+00
*END

*R_NET N32 1.035e-02
*DRIVER U128:O
*CELL INV2
*C2_R1_C1 5.177e-03 0.000e+00 5.177e-03 
*LOADS
*RC desctrl_sel_d1_reg:D 0.000e+00
*END

*R_NET N33 1.035e-02
*DRIVER U136:O
*CELL INV1
*C2_R1_C1 5.177e-03 0.000e+00 5.177e-03 
*LOADS
*RC desdat_sel_d1_reg:D 0.000e+00
*END

*R_NET N34 1.035e-02
*DRIVER U135:O
*CELL INV1
*C2_R1_C1 5.177e-03 0.000e+00 5.177e-03 
*LOADS
*RC deskey_sel_d1_reg:D 0.000e+00
*END

*R_NET N35 1.035e-02
*DRIVER U137:O
*CELL INV2
*C2_R1_C1 5.177e-03 0.000e+00 5.177e-03 
*LOADS
*RC desiv_sel_d1_reg:D 0.000e+00
*END

*R_NET N42 1.035e-02
*DRIVER U133:O
*CELL OAI12S
*C2_R1_C1 5.177e-03 0.000e+00 5.177e-03 
*LOADS
*RC desctrl_sel_reg:D 0.000e+00
*END

*R_NET N43 1.035e-02
*DRIVER U186:O
*CELL MOAI1
*C2_R1_C1 5.177e-03 0.000e+00 5.177e-03 
*LOADS
*RC desdat_sel_reg:D 0.000e+00
*END

*R_NET N44 1.035e-02
*DRIVER U185:O
*CELL MOAI1
*C2_R1_C1 5.177e-03 0.000e+00 5.177e-03 
*LOADS
*RC deskey_sel_reg:D 0.000e+00
*END

*R_NET N45 1.035e-02
*DRIVER U187:O
*CELL MOAI1
*C2_R1_C1 5.177e-03 0.000e+00 5.177e-03 
*LOADS
*RC desiv_sel_reg:D 0.000e+00
*END

*R_NET N46 1.035e-02
*DRIVER U192:O
*CELL AN2
*C2_R1_C1 5.177e-03 0.000e+00 5.177e-03 
*LOADS
*RC data_in_reg_0:D 0.000e+00
*END

*R_NET N47 1.035e-02
*DRIVER U193:O
*CELL AN2
*C2_R1_C1 5.177e-03 0.000e+00 5.177e-03 
*LOADS
*RC data_in_reg_1:D 0.000e+00
*END

*R_NET N48 1.035e-02
*DRIVER U194:O
*CELL AN2
*C2_R1_C1 5.177e-03 0.000e+00 5.177e-03 
*LOADS
*RC data_in_reg_2:D 0.000e+00
*END

*R_NET N49 1.035e-02
*DRIVER U195:O
*CELL AN2
*C2_R1_C1 5.177e-03 0.000e+00 5.177e-03 
*LOADS
*RC data_in_reg_3:D 0.000e+00
*END

*R_NET N50 1.035e-02
*DRIVER U196:O
*CELL AN2
*C2_R1_C1 5.177e-03 0.000e+00 5.177e-03 
*LOADS
*RC data_in_reg_4:D 0.000e+00
*END

*R_NET N51 1.035e-02
*DRIVER U197:O
*CELL AN2
*C2_R1_C1 5.177e-03 0.000e+00 5.177e-03 
*LOADS
*RC data_in_reg_5:D 0.000e+00
*END

*R_NET N52 1.035e-02
*DRIVER U198:O
*CELL AN2
*C2_R1_C1 5.177e-03 0.000e+00 5.177e-03 
*LOADS
*RC data_in_reg_6:D 0.000e+00
*END

*R_NET N53 1.035e-02
*DRIVER U199:O
*CELL AN2
*C2_R1_C1 5.177e-03 0.000e+00 5.177e-03 
*LOADS
*RC data_in_reg_7:D 0.000e+00
*END

*R_NET N54 1.035e-02
*DRIVER U200:O
*CELL AN2
*C2_R1_C1 5.177e-03 0.000e+00 5.177e-03 
*LOADS
*RC data_in_reg_8:D 0.000e+00
*END

*R_NET N55 1.035e-02
*DRIVER U201:O
*CELL AN2
*C2_R1_C1 5.177e-03 0.000e+00 5.177e-03 
*LOADS
*RC data_in_reg_9:D 0.000e+00
*END

*R_NET N56 1.035e-02
*DRIVER U202:O
*CELL AN2
*C2_R1_C1 5.177e-03 0.000e+00 5.177e-03 
*LOADS
*RC data_in_reg_10:D 0.000e+00
*END

*R_NET N57 1.035e-02
*DRIVER U203:O
*CELL AN2
*C2_R1_C1 5.177e-03 0.000e+00 5.177e-03 
*LOADS
*RC data_in_reg_11:D 0.000e+00
*END

*R_NET N58 1.035e-02
*DRIVER U204:O
*CELL AN2
*C2_R1_C1 5.177e-03 0.000e+00 5.177e-03 
*LOADS
*RC data_in_reg_12:D 0.000e+00
*END

*R_NET N59 1.035e-02
*DRIVER U205:O
*CELL AN2
*C2_R1_C1 5.177e-03 0.000e+00 5.177e-03 
*LOADS
*RC data_in_reg_13:D 0.000e+00
*END

*R_NET N60 1.035e-02
*DRIVER U206:O
*CELL AN2
*C2_R1_C1 5.177e-03 0.000e+00 5.177e-03 
*LOADS
*RC data_in_reg_14:D 0.000e+00
*END

*R_NET N61 1.035e-02
*DRIVER U207:O
*CELL AN2
*C2_R1_C1 5.177e-03 0.000e+00 5.177e-03 
*LOADS
*RC data_in_reg_15:D 0.000e+00
*END

*R_NET N62 1.035e-02
*DRIVER U208:O
*CELL AN2
*C2_R1_C1 5.177e-03 0.000e+00 5.177e-03 
*LOADS
*RC data_in_reg_16:D 0.000e+00
*END

*R_NET N63 1.035e-02
*DRIVER U209:O
*CELL AN2
*C2_R1_C1 5.177e-03 0.000e+00 5.177e-03 
*LOADS
*RC data_in_reg_17:D 0.000e+00
*END

*R_NET N64 1.035e-02
*DRIVER U210:O
*CELL AN2
*C2_R1_C1 5.177e-03 0.000e+00 5.177e-03 
*LOADS
*RC data_in_reg_18:D 0.000e+00
*END

*R_NET N65 1.035e-02
*DRIVER U211:O
*CELL AN2
*C2_R1_C1 5.177e-03 0.000e+00 5.177e-03 
*LOADS
*RC data_in_reg_19:D 0.000e+00
*END

*R_NET N66 1.035e-02
*DRIVER U212:O
*CELL AN2
*C2_R1_C1 5.177e-03 0.000e+00 5.177e-03 
*LOADS
*RC data_in_reg_20:D 0.000e+00
*END

*R_NET N67 1.035e-02
*DRIVER U213:O
*CELL AN2
*C2_R1_C1 5.177e-03 0.000e+00 5.177e-03 
*LOADS
*RC data_in_reg_21:D 0.000e+00
*END

*R_NET N68 1.035e-02
*DRIVER U214:O
*CELL AN2
*C2_R1_C1 5.177e-03 0.000e+00 5.177e-03 
*LOADS
*RC data_in_reg_22:D 0.000e+00
*END

*R_NET N69 1.035e-02
*DRIVER U215:O
*CELL AN2
*C2_R1_C1 5.177e-03 0.000e+00 5.177e-03 
*LOADS
*RC data_in_reg_23:D 0.000e+00
*END

*R_NET N70 1.035e-02
*DRIVER U216:O
*CELL AN2
*C2_R1_C1 5.177e-03 0.000e+00 5.177e-03 
*LOADS
*RC data_in_reg_24:D 0.000e+00
*END

*R_NET N71 1.035e-02
*DRIVER U217:O
*CELL AN2
*C2_R1_C1 5.177e-03 0.000e+00 5.177e-03 
*LOADS
*RC data_in_reg_25:D 0.000e+00
*END

*R_NET N72 1.035e-02
*DRIVER U218:O
*CELL AN2
*C2_R1_C1 5.177e-03 0.000e+00 5.177e-03 
*LOADS
*RC data_in_reg_26:D 0.000e+00
*END

*R_NET N73 1.035e-02
*DRIVER U219:O
*CELL AN2
*C2_R1_C1 5.177e-03 0.000e+00 5.177e-03 
*LOADS
*RC data_in_reg_27:D 0.000e+00
*END

*R_NET N74 1.035e-02
*DRIVER U220:O
*CELL AN2
*C2_R1_C1 5.177e-03 0.000e+00 5.177e-03 
*LOADS
*RC data_in_reg_28:D 0.000e+00
*END

*R_NET N75 1.035e-02
*DRIVER U221:O
*CELL AN2
*C2_R1_C1 5.177e-03 0.000e+00 5.177e-03 
*LOADS
*RC data_in_reg_29:D 0.000e+00
*END

*R_NET N76 1.035e-02
*DRIVER U222:O
*CELL AN2
*C2_R1_C1 5.177e-03 0.000e+00 5.177e-03 
*LOADS
*RC data_in_reg_30:D 0.000e+00
*END

*R_NET N77 1.035e-02
*DRIVER U223:O
*CELL AN2
*C2_R1_C1 5.177e-03 0.000e+00 5.177e-03 
*LOADS
*RC data_in_reg_31:D 0.000e+00
*END

*R_NET N82 1.035e-02
*DRIVER U134:O
*CELL OA12
*C2_R1_C1 5.175e-03 0.000e+00 5.175e-03 
*LOADS
*RC hready_resp_reg:D 0.000e+00
*END

*R_NET CLKGATING_hclk_POWERGATING_hclk_N26_0_0 9.995e-02
*DRIVER POWERGATING_hclk_N26_0/main_gate:O
*CELL AN2
*C2_R1_C1 4.998e-02 0.000e+00 4.998e-02 
*LOADS
*RC LOCKUP:CKB 0.000e+00
*RC desctrl_reg_2:CK 0.000e+00
*RC desctrl_reg_0:CK 0.000e+00
*RC desctrl_reg_1:CK 0.000e+00
*RC desctrl_reg_3:CK 0.000e+00
*RC desctrl_reg_4:CK 0.000e+00
*RC desctrl_reg_5:CK 0.000e+00
*RC desctrl_reg_6:CK 0.000e+00
*RC desctrl_reg_7:CK 0.000e+00
*END

*R_NET net1749 1.876e-02
*DRIVER POWERGATING_hclk_N26_0/latch:Q
*CELL QDBHN
*C2_R1_C1 9.382e-03 0.000e+00 9.382e-03 
*LOADS
*RC clk_gate_obs/nand_0_0:I1 0.000e+00
*RC POWERGATING_hclk_N26_0/U2:I2 0.000e+00
*END

*R_NET n3 1.074e-02
*DRIVER U177:O
*CELL MAOI1
*C2_R1_C1 5.371e-03 0.000e+00 5.371e-03 
*LOADS
*RC U176:I1 0.000e+00
*END

*R_NET n4 1.358e-01
*DRIVER U130:O
*CELL INV3
*C2_R1_C1 6.789e-02 0.000e+00 6.789e-02 
*LOADS
*RC U232:A2 0.000e+00
*RC U231:A2 0.000e+00
*RC U230:A2 0.000e+00
*RC U229:A2 0.000e+00
*RC U228:A2 0.000e+00
*RC U227:A2 0.000e+00
*RC U226:A2 0.000e+00
*RC U177:B2 0.000e+00
*RC U131:I1 0.000e+00
*RC U125:I1 0.000e+00
*END

*R_NET n5 3.903e-02
*DRIVER U126:O
*CELL OR3B2
*C2_R1_C1 1.951e-02 0.000e+00 1.951e-02 
*LOADS
*RC U179:I3 0.000e+00
*RC U139:I2 0.000e+00
*RC U138:C1 0.000e+00
*END

*R_NET n6 6.662e-02
*DRIVER rw_reg:QB
*CELL DFZSBN
*C2_R1_C1 3.331e-02 0.000e+00 3.331e-02 
*LOADS
*RC U178:I2 0.000e+00
*RC U175:I2 0.000e+00
*RC U138:C2 0.000e+00
*RC U129:I1 0.000e+00
*RC U125:I2 0.000e+00
*END

*R_NET n7 3.121e-01
*DRIVER hwrite_d1_reg:Q
*CELL DFZRBS
*C2_R1_C1 1.560e-01 0.000e+00 1.560e-01 
*LOADS
*RC nextiv_ready_en_reg:TD 0.000e+00
*RC U225:I2 0.000e+00
*RC U223:I2 0.000e+00
*RC U222:I2 0.000e+00
*RC U221:I2 0.000e+00
*RC U220:I2 0.000e+00
*RC U219:I2 0.000e+00
*RC U218:I2 0.000e+00
*RC U217:I2 0.000e+00
*RC U216:I2 0.000e+00
*RC U215:I2 0.000e+00
*RC U214:I2 0.000e+00
*RC U213:I2 0.000e+00
*RC U212:I2 0.000e+00
*RC U211:I2 0.000e+00
*RC U210:I2 0.000e+00
*RC U209:I2 0.000e+00
*RC U208:I2 0.000e+00
*RC U207:I2 0.000e+00
*RC U206:I2 0.000e+00
*RC U205:I2 0.000e+00
*RC U204:I2 0.000e+00
*RC U203:I2 0.000e+00
*RC U202:I2 0.000e+00
*RC U201:I2 0.000e+00
*RC U200:I2 0.000e+00
*RC U199:I2 0.000e+00
*RC U198:I2 0.000e+00
*RC U197:I2 0.000e+00
*RC U196:I2 0.000e+00
*RC U195:I2 0.000e+00
*RC U194:I2 0.000e+00
*RC U193:I2 0.000e+00
*RC U192:I2 0.000e+00
*RC U187:B2 0.000e+00
*RC U186:B2 0.000e+00
*RC U185:B2 0.000e+00
*RC U138:A1 0.000e+00
*RC U38:I1 0.000e+00
*END

*R_NET n8 2.570e-01
*DRIVER U38:O
*CELL NR2F
*C2_R1_C1 1.285e-01 0.000e+00 1.285e-01 
*LOADS
*RC U173:I2 0.000e+00
*RC U172:I2 0.000e+00
*RC U171:I2 0.000e+00
*RC U170:I2 0.000e+00
*RC U169:I2 0.000e+00
*RC U168:I2 0.000e+00
*RC U167:I2 0.000e+00
*RC U166:I2 0.000e+00
*RC U165:I2 0.000e+00
*RC U164:I2 0.000e+00
*RC U163:I2 0.000e+00
*RC U162:I2 0.000e+00
*RC U161:I2 0.000e+00
*RC U160:I2 0.000e+00
*RC U159:I2 0.000e+00
*RC U158:I2 0.000e+00
*RC U157:I2 0.000e+00
*RC U156:I2 0.000e+00
*RC U155:I2 0.000e+00
*RC U154:I2 0.000e+00
*RC U153:I2 0.000e+00
*RC U152:I2 0.000e+00
*RC U151:I2 0.000e+00
*RC U150:I2 0.000e+00
*RC U149:B2 0.000e+00
*RC U148:B2 0.000e+00
*RC U147:B2 0.000e+00
*RC U146:B2 0.000e+00
*RC U145:B2 0.000e+00
*RC U144:B2 0.000e+00