*SPEF "IEEE 1481-1999"
*DESIGN "des"
*DATE "Fri Sep 18 12:13:09 2009"
*VENDOR "SYNOPSYS INC"
*PROGRAM "Synopsys Design Compiler cmos"
*VERSION "Z-2007.03-SP1"
*DESIGN_FLOW "SYNTHESIS"
*DIVIDER /
*DELIMITER :
*BUS_DELIMITER []
*T_UNIT 1.0 NS
*C_UNIT 1.0 PF
*R_UNIT 1.0 KOHM
*L_UNIT 1.0 HENRY

*PORTS

hclk I *L 0.000e+00 *S 0.000e+00 0.000e+00 
POR I *L 0.000e+00 *S 0.000e+00 0.000e+00 
hresetn I *L 0.000e+00 *S 0.000e+00 0.000e+00 
hsel I *L 0.000e+00 *S 0.000e+00 0.000e+00 
hwdata\[31\] I *L 0.000e+00 *S 0.000e+00 0.000e+00 
hwdata\[30\] I *L 0.000e+00 *S 0.000e+00 0.000e+00 
hwdata\[29\] I *L 0.000e+00 *S 0.000e+00 0.000e+00 
hwdata\[28\] I *L 0.000e+00 *S 0.000e+00 0.000e+00 
hwdata\[27\] I *L 0.000e+00 *S 0.000e+00 0.000e+00 
hwdata\[26\] I *L 0.000e+00 *S 0.000e+00 0.000e+00 
hwdata\[25\] I *L 0.000e+00 *S 0.000e+00 0.000e+00 
hwdata\[24\] I *L 0.000e+00 *S 0.000e+00 0.000e+00 
hwdata\[23\] I *L 0.000e+00 *S 0.000e+00 0.000e+00 
hwdata\[22\] I *L 0.000e+00 *S 0.000e+00 0.000e+00 
hwdata\[21\] I *L 0.000e+00 *S 0.000e+00 0.000e+00 
hwdata\[20\] I *L 0.000e+00 *S 0.000e+00 0.000e+00 
hwdata\[19\] I *L 0.000e+00 *S 0.000e+00 0.000e+00 
hwdata\[18\] I *L 0.000e+00 *S 0.000e+00 0.000e+00 
hwdata\[17\] I *L 0.000e+00 *S 0.000e+00 0.000e+00 
hwdata\[16\] I *L 0.000e+00 *S 0.000e+00 0.000e+00 
hwdata\[15\] I *L 0.000e+00 *S 0.000e+00 0.000e+00 
hwdata\[14\] I *L 0.000e+00 *S 0.000e+00 0.000e+00 
hwdata\[13\] I *L 0.000e+00 *S 0.000e+00 0.000e+00 
hwdata\[12\] I *L 0.000e+00 *S 0.000e+00 0.000e+00 
hwdata\[11\] I *L 0.000e+00 *S 0.000e+00 0.000e+00 
hwdata\[10\] I *L 0.000e+00 *S 0.000e+00 0.000e+00 
hwdata\[9\] I *L 0.000e+00 *S 0.000e+00 0.000e+00 
hwdata\[8\] I *L 0.000e+00 *S 0.000e+00 0.000e+00 
hwdata\[7\] I *L 0.000e+00 *S 0.000e+00 0.000e+00 
hwdata\[6\] I *L 0.000e+00 *S 0.000e+00 0.000e+00 
hwdata\[5\] I *L 0.000e+00 *S 0.000e+00 0.000e+00 
hwdata\[4\] I *L 0.000e+00 *S 0.000e+00 0.000e+00 
hwdata\[3\] I *L 0.000e+00 *S 0.000e+00 0.000e+00 
hwdata\[2\] I *L 0.000e+00 *S 0.000e+00 0.000e+00 
hwdata\[1\] I *L 0.000e+00 *S 0.000e+00 0.000e+00 
hwdata\[0\] I *L 0.000e+00 *S 0.000e+00 0.000e+00 
haddr\[9\] I *L 0.000e+00 *S 0.000e+00 0.000e+00 
haddr\[8\] I *L 0.000e+00 *S 0.000e+00 0.000e+00 
haddr\[7\] I *L 0.000e+00 *S 0.000e+00 0.000e+00 
haddr\[6\] I *L 0.000e+00 *S 0.000e+00 0.000e+00 
haddr\[5\] I *L 0.000e+00 *S 0.000e+00 0.000e+00 
haddr\[4\] I *L 0.000e+00 *S 0.000e+00 0.000e+00 
haddr\[3\] I *L 0.000e+00 *S 0.000e+00 0.000e+00 
haddr\[2\] I *L 0.000e+00 *S 0.000e+00 0.000e+00 
haddr\[1\] I *L 0.000e+00 *S 0.000e+00 0.000e+00 
haddr\[0\] I *L 0.000e+00 *S 0.000e+00 0.000e+00 
hwrite I *L 0.000e+00 *S 0.000e+00 0.000e+00 
htrans\[1\] I *L 0.000e+00 *S 0.000e+00 0.000e+00 
htrans\[0\] I *L 0.000e+00 *S 0.000e+00 0.000e+00 
hsize\[2\] I *L 0.000e+00 *S 0.000e+00 0.000e+00 
hsize\[1\] I *L 0.000e+00 *S 0.000e+00 0.000e+00 
hsize\[0\] I *L 0.000e+00 *S 0.000e+00 0.000e+00 
hburst\[2\] I *L 0.000e+00 *S 0.000e+00 0.000e+00 
hburst\[1\] I *L 0.000e+00 *S 0.000e+00 0.000e+00 
hburst\[0\] I *L 0.000e+00 *S 0.000e+00 0.000e+00 
hready I *L 0.000e+00 *S 0.000e+00 0.000e+00 
hready_resp O *L 0.000e+00 *S 1.652e-01 1.177e-01 
hresp\[1\] O *L 0.000e+00 *S 1.665e-01 1.331e-01 
hresp\[0\] O *L 0.000e+00 *S 1.665e-01 1.331e-01 
hrdata\[31\] O *L 0.000e+00 *S 1.880e-01 1.446e-01 
hrdata\[30\] O *L 0.000e+00 *S 1.880e-01 1.446e-01 
hrdata\[29\] O *L 0.000e+00 *S 1.880e-01 1.446e-01 
hrdata\[28\] O *L 0.000e+00 *S 1.880e-01 1.446e-01 
hrdata\[27\] O *L 0.000e+00 *S 1.880e-01 1.446e-01 
hrdata\[26\] O *L 0.000e+00 *S 1.880e-01 1.446e-01 
hrdata\[25\] O *L 0.000e+00 *S 1.880e-01 1.446e-01 
hrdata\[24\] O *L 0.000e+00 *S 1.880e-01 1.446e-01 
hrdata\[23\] O *L 0.000e+00 *S 1.880e-01 1.446e-01 
hrdata\[22\] O *L 0.000e+00 *S 1.880e-01 1.446e-01 
hrdata\[21\] O *L 0.000e+00 *S 1.880e-01 1.446e-01 
hrdata\[20\] O *L 0.000e+00 *S 1.880e-01 1.446e-01 
hrdata\[19\] O *L 0.000e+00 *S 1.880e-01 1.446e-01 
hrdata\[18\] O *L 0.000e+00 *S 1.880e-01 1.446e-01 
hrdata\[17\] O *L 0.000e+00 *S 1.880e-01 1.446e-01 
hrdata\[16\] O *L 0.000e+00 *S 1.880e-01 1.446e-01 
hrdata\[15\] O *L 0.000e+00 *S 1.880e-01 1.446e-01 
hrdata\[14\] O *L 0.000e+00 *S 1.880e-01 1.446e-01 
hrdata\[13\] O *L 0.000e+00 *S 1.880e-01 1.446e-01 
hrdata\[12\] O *L 0.000e+00 *S 1.880e-01 1.446e-01 
hrdata\[11\] O *L 0.000e+00 *S 1.880e-01 1.446e-01 
hrdata\[10\] O *L 0.000e+00 *S 1.880e-01 1.446e-01 
hrdata\[9\] O *L 0.000e+00 *S 1.880e-01 1.446e-01 
hrdata\[8\] O *L 0.000e+00 *S 1.880e-01 1.446e-01 
hrdata\[7\] O *L 0.000e+00 *S 3.607e-01 2.231e-01 
hrdata\[6\] O *L 0.000e+00 *S 3.607e-01 2.231e-01 
hrdata\[5\] O *L 0.000e+00 *S 3.607e-01 2.231e-01 
hrdata\[4\] O *L 0.000e+00 *S 3.607e-01 2.231e-01 
hrdata\[3\] O *L 0.000e+00 *S 3.607e-01 2.231e-01 
hrdata\[2\] O *L 0.000e+00 *S 3.607e-01 2.231e-01 
hrdata\[1\] O *L 0.000e+00 *S 3.607e-01 2.231e-01 
hrdata\[0\] O *L 0.000e+00 *S 3.607e-01 2.231e-01 
Test_Mode I *L 0.000e+00 *S 0.000e+00 0.000e+00 

*R_NET hclk 5.676e-01
*DRIVER hclk
*CELL NULL
*C2_R1_C1 2.838e-01 0.000e+00 2.838e-01 
*LOADS
*RC u_des_spares_0/SPARE_UF03:CK 0.000e+00
*RC u_des_spares_0/SPARE_UF01:CK 0.000e+00
*RC des_cop_unit/des_unit/u_tiny_des_round/clk_gate_obs/main_gate:I2 0.000e+00
*RC des_cop_unit/des_unit/u_tiny_des_round/POWERGATING_hclk_N1778_0/latch:CKB 0.000e+00
*RC des_cop_unit/des_unit/u_tiny_des_round/POWERGATING_hclk_N1778_0/main_gate:I2 0.000e+00
*RC des_cop_unit/des_unit/state_reg:CK 0.000e+00
*RC des_cop_unit/des_unit/round_reg_3:CK 0.000e+00
*RC des_cop_unit/des_unit/round_reg_2:CK 0.000e+00
*RC des_cop_unit/des_unit/round_reg_1:CK 0.000e+00
*RC des_cop_unit/des_unit/round_reg_0:CK 0.000e+00
*RC des_cop_unit/des_unit/dout_valid_reg:CK 0.000e+00
*RC desdat_unit/clk_gate_obs/main_gate:I2 0.000e+00
*RC desdat_unit/POWERGATING_hclk_N70_0/latch:CKB 0.000e+00
*RC desdat_unit/POWERGATING_hclk_N70_0/main_gate:I2 0.000e+00
*RC desdat_unit/POWERGATING_hclk_N134_0/latch:CKB 0.000e+00
*RC desdat_unit/POWERGATING_hclk_N134_0/main_gate:I2 0.000e+00
*RC desiv_unit/clk_gate_obs/main_gate:I2 0.000e+00
*RC desiv_unit/POWERGATING_hclk_N66_0/latch:CKB 0.000e+00
*RC desiv_unit/POWERGATING_hclk_N66_0/main_gate:I2 0.000e+00
*RC desiv_unit/POWERGATING_hclk_N130_0/latch:CKB 0.000e+00
*RC desiv_unit/POWERGATING_hclk_N130_0/main_gate:I2 0.000e+00
*RC deskey_unit/clk_gate_obs/main_gate:I2 0.000e+00
*RC deskey_unit/POWERGATING_hclk_N83_0/latch:CKB 0.000e+00
*RC deskey_unit/POWERGATING_hclk_N83_0/main_gate:I2 0.000e+00
*RC deskey_unit/POWERGATING_hclk_N115_0/latch:CKB 0.000e+00
*RC deskey_unit/POWERGATING_hclk_N115_0/main_gate:I2 0.000e+00
*RC deskey_unit/POWERGATING_hclk_N147_0/latch:CKB 0.000e+00
*RC deskey_unit/POWERGATING_hclk_N147_0/main_gate:I2 0.000e+00
*RC deskey_unit/POWERGATING_hclk_N179_0/latch:CKB 0.000e+00
*RC deskey_unit/POWERGATING_hclk_N179_0/main_gate:I2 0.000e+00
*RC deskey_unit/POWERGATING_hclk_N211_0/latch:CKB 0.000e+00
*RC deskey_unit/POWERGATING_hclk_N211_0/main_gate:I2 0.000e+00
*RC deskey_unit/POWERGATING_hclk_N243_0/latch:CKB 0.000e+00
*RC deskey_unit/POWERGATING_hclk_N243_0/main_gate:I2 0.000e+00
*RC clk_gate_obs/main_gate:I2 0.000e+00
*RC POWERGATING_hclk_N26_0/latch:CKB 0.000e+00
*RC POWERGATING_hclk_N26_0/main_gate:I2 0.000e+00
*RC des_cop_unit/flag_reg_1:CK 0.000e+00
*RC des_cop_unit/flag_reg_0:CK 0.000e+00
*RC des_cop_unit/din_valid_eins_reg:CK 0.000e+00
*RC desdat_unit/wr_ptr_reg:CK 0.000e+00
*RC desdat_unit/rd_ptr_reg:CK 0.000e+00
*RC desdat_unit/full_pulse_reg:CK 0.000e+00
*RC desdat_unit/full_delay_reg:CK 0.000e+00
*RC desdat_unit/full_reg:CK 0.000e+00
*RC desdat_unit/ptr_reg_1:CK 0.000e+00
*RC desdat_unit/ptr_reg_0:CK 0.000e+00
*RC desiv_unit/ptr_reg_0:CK 0.000e+00
*RC desiv_unit/wr_ptr_reg:CK 0.000e+00
*RC desiv_unit/ptr_reg_1:CK 0.000e+00
*RC nextiv_ready_en_reg:CK 0.000e+00
*RC run_delay_reg:CK 0.000e+00
*RC desdat_sel_reg:CK 0.000e+00
*RC desdat_sel_d1_reg:CK 0.000e+00
*RC deskey_sel_reg:CK 0.000e+00
*RC deskey_sel_d1_reg:CK 0.000e+00
*RC desiv_sel_reg:CK 0.000e+00
*RC desiv_sel_d1_reg:CK 0.000e+00
*RC hready_resp_reg:CK 0.000e+00
*RC desctrl_sel_reg:CK 0.000e+00
*RC desctrl_sel_d1_reg:CK 0.000e+00
*RC data_in_reg_24:CK 0.000e+00
*RC data_in_reg_16:CK 0.000e+00
*RC data_in_reg_8:CK 0.000e+00
*RC data_in_reg_0:CK 0.000e+00
*RC data_in_reg_31:CK 0.000e+00
*RC data_in_reg_30:CK 0.000e+00
*RC data_in_reg_29:CK 0.000e+00
*RC data_in_reg_28:CK 0.000e+00
*RC data_in_reg_27:CK 0.000e+00
*RC data_in_reg_26:CK 0.000e+00
*RC data_in_reg_25:CK 0.000e+00
*RC data_in_reg_23:CK 0.000e+00
*RC data_in_reg_22:CK 0.000e+00
*RC data_in_reg_21:CK 0.000e+00
*RC data_in_reg_20:CK 0.000e+00
*RC data_in_reg_19:CK 0.000e+00
*RC data_in_reg_18:CK 0.000e+00
*RC data_in_reg_17:CK 0.000e+00
*RC data_in_reg_15:CK 0.000e+00
*RC data_in_reg_14:CK 0.000e+00
*RC data_in_reg_13:CK 0.000e+00
*RC data_in_reg_12:CK 0.000e+00
*RC data_in_reg_11:CK 0.000e+00
*RC data_in_reg_10:CK 0.000e+00
*RC data_in_reg_9:CK 0.000e+00
*RC data_in_reg_7:CK 0.000e+00
*RC data_in_reg_6:CK 0.000e+00
*RC data_in_reg_5:CK 0.000e+00
*RC data_in_reg_4:CK 0.000e+00
*RC data_in_reg_3:CK 0.000e+00
*RC data_in_reg_2:CK 0.000e+00
*RC data_in_reg_1:CK 0.000e+00
*RC rw_reg:CK 0.000e+00
*RC hwrite_d1_reg:CK 0.000e+00
*RC deskey_unit/wr_ptr_reg_1:CK 0.000e+00
*RC deskey_unit/wr_ptr_reg_2:CK 0.000e+00
*RC deskey_unit/wr_ptr_reg_0:CK 0.000e+00
*RC deskey_unit/ptr_reg_1:CK 0.000e+00
*RC deskey_unit/ptr_reg_0:CK 0.000e+00
*RC deskey_unit/ptr_reg_2:CK 0.000e+00
*END

*R_NET POR 0.000e+00
*DRIVER POR
*CELL NULL
*C2_R1_C1 0.000e+00 0.000e+00 0.000e+00 
*LOADS
*RC des_cop_unit/des_unit/u_tiny_des_round/dout_reg_60:RB 0.000e+00
*RC des_cop_unit/des_unit/u_tiny_des_round/dout_reg_46:RB 0.000e+00
*RC des_cop_unit/des_unit/u_tiny_des_round/dout_reg_39:RB 0.000e+00
*RC des_cop_unit/des_unit/u_tiny_des_round/dout_reg_45:RB 0.000e+00
*RC des_cop_unit/des_unit/u_tiny_des_round/dout_reg_50:RB 0.000e+00
*RC des_cop_unit/des_unit/u_tiny_des_round/dout_reg_63:RB 0.000e+00
*RC des_cop_unit/des_unit/u_tiny_des_round/dout_reg_33:RB 0.000e+00
*RC des_cop_unit/des_unit/u_tiny_des_round/dout_reg_37:RB 0.000e+00
*RC des_cop_unit/des_unit/u_tiny_des_round/dout_reg_57:RB 0.000e+00
*RC des_cop_unit/des_unit/u_tiny_des_round/dout_reg_51:RB 0.000e+00
*RC des_cop_unit/des_unit/u_tiny_des_round/dout_reg_48:RB 0.000e+00
*RC des_cop_unit/des_unit/u_tiny_des_round/dout_reg_56:RB 0.000e+00
*RC des_cop_unit/des_unit/u_tiny_des_round/dout_reg_34:RB 0.000e+00
*RC des_cop_unit/des_unit/u_tiny_des_round/dout_reg_59:RB 0.000e+00
*RC des_cop_unit/des_unit/u_tiny_des_round/dout_reg_36:RB 0.000e+00
*RC des_cop_unit/des_unit/u_tiny_des_round/dout_reg_49:RB 0.000e+00
*RC des_cop_unit/des_unit/u_tiny_des_round/dout_reg_38:RB 0.000e+00
*RC des_cop_unit/des_unit/u_tiny_des_round/dout_reg_32:RB 0.000e+00
*RC des_cop_unit/des_unit/u_tiny_des_round/dout_reg_43:RB 0.000e+00
*RC des_cop_unit/des_unit/u_tiny_des_round/dout_reg_53:RB 0.000e+00
*RC des_cop_unit/des_unit/u_tiny_des_round/dout_reg_58:RB 0.000e+00
*RC des_cop_unit/des_unit/u_tiny_des_round/dout_reg_62:RB 0.000e+00
*RC des_cop_unit/des_unit/u_tiny_des_round/dout_reg_47:RB 0.000e+00
*RC des_cop_unit/des_unit/u_tiny_des_round/dout_reg_61:RB 0.000e+00
*RC des_cop_unit/des_unit/u_tiny_des_round/dout_reg_41:RB 0.000e+00
*RC des_cop_unit/des_unit/u_tiny_des_round/dout_reg_35:RB 0.000e+00
*RC des_cop_unit/des_unit/u_tiny_des_round/dout_reg_42:RB 0.000e+00
*RC des_cop_unit/des_unit/u_tiny_des_round/dout_reg_10:RB 0.000e+00
*RC des_cop_unit/des_unit/u_tiny_des_round/dout_reg_52:RB 0.000e+00
*RC des_cop_unit/des_unit/u_tiny_des_round/dout_reg_44:RB 0.000e+00
*RC des_cop_unit/des_unit/u_tiny_des_round/dout_reg_12:RB 0.000e+00
*RC des_cop_unit/des_unit/u_tiny_des_round/dout_reg_54:RB 0.000e+00
*RC des_cop_unit/des_unit/u_tiny_des_round/dout_reg_40:RB 0.000e+00
*RC des_cop_unit/des_unit/u_tiny_des_round/dout_reg_8:RB 0.000e+00
*RC des_cop_unit/des_unit/u_tiny_des_round/dout_reg_22:RB 0.000e+00
*RC des_cop_unit/des_unit/u_tiny_des_round/dout_reg_20:RB 0.000e+00
*RC des_cop_unit/des_unit/u_tiny_des_round/dout_reg_3:RB 0.000e+00
*RC des_cop_unit/des_unit/u_tiny_des_round/dout_reg_9:RB 0.000e+00
*RC des_cop_unit/des_unit/u_tiny_des_round/dout_reg_55:RB 0.000e+00
*RC des_cop_unit/des_unit/u_tiny_des_round/dout_reg_23:RB 0.000e+00
*RC des_cop_unit/des_unit/u_tiny_des_round/dout_reg_29:RB 0.000e+00
*RC des_cop_unit/des_unit/u_tiny_des_round/dout_reg_15:RB 0.000e+00
*RC des_cop_unit/des_unit/u_tiny_des_round/dout_reg_30:RB 0.000e+00
*RC des_cop_unit/des_unit/u_tiny_des_round/dout_reg_26:RB 0.000e+00
*RC des_cop_unit/des_unit/u_tiny_des_round/dout_reg_21:RB 0.000e+00
*RC des_cop_unit/des_unit/u_tiny_des_round/dout_reg_11:RB 0.000e+00
*RC des_cop_unit/des_unit/u_tiny_des_round/dout_reg_0:RB 0.000e+00
*RC des_cop_unit/des_unit/u_tiny_des_round/dout_reg_6:RB 0.000e+00
*RC des_cop_unit/des_unit/u_tiny_des_round/dout_reg_17:RB 0.000e+00
*RC des_cop_unit/des_unit/u_tiny_des_round/dout_reg_4:RB 0.000e+00
*RC des_cop_unit/des_unit/u_tiny_des_round/dout_reg_27:RB 0.000e+00
*RC des_cop_unit/des_unit/u_tiny_des_round/dout_reg_2:RB 0.000e+00
*RC des_cop_unit/des_unit/u_tiny_des_round/dout_reg_24:RB 0.000e+00
*RC des_cop_unit/des_unit/u_tiny_des_round/dout_reg_16:RB 0.000e+00
*RC des_cop_unit/des_unit/u_tiny_des_round/dout_reg_19:RB 0.000e+00
*RC des_cop_unit/des_unit/u_tiny_des_round/dout_reg_25:RB 0.000e+00
*RC des_cop_unit/des_unit/u_tiny_des_round/dout_reg_5:RB 0.000e+00
*RC des_cop_unit/des_unit/u_tiny_des_round/dout_reg_1:RB 0.000e+00
*RC des_cop_unit/des_unit/u_tiny_des_round/dout_reg_31:RB 0.000e+00
*RC des_cop_unit/des_unit/u_tiny_des_round/dout_reg_18:RB 0.000e+00
*RC des_cop_unit/des_unit/u_tiny_des_round/dout_reg_13:RB 0.000e+00
*RC des_cop_unit/des_unit/u_tiny_des_round/dout_reg_7:RB 0.000e+00
*RC des_cop_unit/des_unit/u_tiny_des_round/dout_reg_14:RB 0.000e+00
*RC des_cop_unit/des_unit/u_tiny_des_round/dout_reg_28:RB 0.000e+00
*RC desdat_unit/fifo_mem_reg_0_31:RB 0.000e+00
*RC desdat_unit/fifo_mem_reg_0_11:RB 0.000e+00
*RC desdat_unit/fifo_mem_reg_0_1:RB 0.000e+00
*RC desdat_unit/fifo_mem_reg_0_19:RB 0.000e+00
*RC desdat_unit/fifo_mem_reg_1_13:RB 0.000e+00
*RC desdat_unit/fifo_mem_reg_0_7:RB 0.000e+00
*RC desdat_unit/fifo_mem_reg_1_17:RB 0.000e+00
*RC desdat_unit/fifo_mem_reg_0_17:RB 0.000e+00
*RC desdat_unit/fifo_mem_reg_1_23:RB 0.000e+00
*RC desdat_unit/fifo_mem_reg_1_5:RB 0.000e+00
*RC desdat_unit/fifo_mem_reg_1_29:RB 0.000e+00
*RC desdat_unit/fifo_mem_reg_1_31:RB 0.000e+00
*RC desdat_unit/fifo_mem_reg_1_9:RB 0.000e+00
*RC desdat_unit/fifo_mem_reg_1_7:RB 0.000e+00
*RC desdat_unit/fifo_mem_reg_0_25:RB 0.000e+00
*RC desdat_unit/fifo_mem_reg_1_21:RB 0.000e+00
*RC desdat_unit/fifo_mem_reg_0_9:RB 0.000e+00
*RC desdat_unit/fifo_mem_reg_1_25:RB 0.000e+00
*RC desdat_unit/fifo_mem_reg_1_3:RB 0.000e+00
*RC desdat_unit/fifo_mem_reg_0_21:RB 0.000e+00
*RC desdat_unit/fifo_mem_reg_1_15:RB 0.000e+00
*RC desdat_unit/fifo_mem_reg_0_15:RB 0.000e+00
*RC desdat_unit/fifo_mem_reg_0_3:RB 0.000e+00
*RC desdat_unit/fifo_mem_reg_0_23:RB 0.000e+00
*RC desdat_unit/fifo_mem_reg_1_19:RB 0.000e+00
*RC desdat_unit/fifo_mem_reg_1_1:RB 0.000e+00
*RC desdat_unit/fifo_mem_reg_1_11:RB 0.000e+00
*RC desdat_unit/fifo_mem_reg_1_10:RB 0.000e+00
*RC desdat_unit/fifo_mem_reg_0_29:RB 0.000e+00
*RC desdat_unit/fifo_mem_reg_0_27:RB 0.000e+00
*RC desdat_unit/fifo_mem_reg_0_26:RB 0.000e+00
*RC desdat_unit/fifo_mem_reg_0_13:RB 0.000e+00
*RC desdat_unit/fifo_mem_reg_1_27:RB 0.000e+00
*RC desdat_unit/fifo_mem_reg_1_26:RB 0.000e+00
*RC desdat_unit/fifo_mem_reg_0_12:RB 0.000e+00
*RC desdat_unit/fifo_mem_reg_0_28:RB 0.000e+00
*RC desdat_unit/fifo_mem_reg_1_0:RB 0.000e+00
*RC desdat_unit/fifo_mem_reg_1_18:RB 0.000e+00
*RC desdat_unit/fifo_mem_reg_0_5:RB 0.000e+00
*RC desdat_unit/fifo_mem_reg_0_4:RB 0.000e+00
*RC desdat_unit/fifo_mem_reg_0_22:RB 0.000e+00
*RC desdat_unit/fifo_mem_reg_0_2:RB 0.000e+00
*RC desdat_unit/fifo_mem_reg_0_14:RB 0.000e+00
*RC desdat_unit/fifo_mem_reg_1_14:RB 0.000e+00
*RC desdat_unit/fifo_mem_reg_0_20:RB 0.000e+00
*RC desdat_unit/fifo_mem_reg_1_2:RB 0.000e+00
*RC desdat_unit/fifo_mem_reg_1_24:RB 0.000e+00
*RC desdat_unit/fifo_mem_reg_0_8:RB 0.000e+00
*RC desdat_unit/fifo_mem_reg_1_20:RB 0.000e+00
*RC desdat_unit/fifo_mem_reg_0_24:RB 0.000e+00
*RC desdat_unit/fifo_mem_reg_1_6:RB 0.000e+00
*RC desdat_unit/fifo_mem_reg_1_8:RB 0.000e+00
*RC desdat_unit/fifo_mem_reg_1_30:RB 0.000e+00
*RC desdat_unit/fifo_mem_reg_1_28:RB 0.000e+00
*RC desdat_unit/fifo_mem_reg_1_4:RB 0.000e+00
*RC desdat_unit/fifo_mem_reg_1_22:RB 0.000e+00
*RC desdat_unit/fifo_mem_reg_0_16:RB 0.000e+00
*RC desdat_unit/fifo_mem_reg_1_16:RB 0.000e+00
*RC desdat_unit/fifo_mem_reg_0_6:RB 0.000e+00
*RC desdat_unit/fifo_mem_reg_1_12:RB 0.000e+00
*RC desdat_unit/fifo_mem_reg_0_18:RB 0.000e+00
*RC desdat_unit/fifo_mem_reg_0_0:RB 0.000e+00
*RC desdat_unit/fifo_mem_reg_0_10:RB 0.000e+00
*RC desdat_unit/fifo_mem_reg_0_30:RB 0.000e+00
*RC desiv_unit/fifo_mem_reg_0_31:RB 0.000e+00
*RC desiv_unit/fifo_mem_reg_0_11:RB 0.000e+00
*RC desiv_unit/fifo_mem_reg_0_1:RB 0.000e+00
*RC desiv_unit/fifo_mem_reg_0_19:RB 0.000e+00
*RC desiv_unit/fifo_mem_reg_1_13:RB 0.000e+00
*RC desiv_unit/fifo_mem_reg_0_7:RB 0.000e+00
*RC desiv_unit/fifo_mem_reg_1_17:RB 0.000e+00
*RC desiv_unit/fifo_mem_reg_0_17:RB 0.000e+00
*RC desiv_unit/fifo_mem_reg_1_23:RB 0.000e+00
*RC desiv_unit/fifo_mem_reg_1_5:RB 0.000e+00
*RC desiv_unit/fifo_mem_reg_1_29:RB 0.000e+00
*RC desiv_unit/fifo_mem_reg_1_31:RB 0.000e+00
*RC desiv_unit/fifo_mem_reg_1_9:RB 0.000e+00
*RC desiv_unit/fifo_mem_reg_1_7:RB 0.000e+00
*RC desiv_unit/fifo_mem_reg_0_25:RB 0.000e+00
*RC desiv_unit/fifo_mem_reg_1_21:RB 0.000e+00
*RC desiv_unit/fifo_mem_reg_0_9:RB 0.000e+00
*RC desiv_unit/fifo_mem_reg_1_25:RB 0.000e+00
*RC desiv_unit/fifo_mem_reg_1_3:RB 0.000e+00
*RC desiv_unit/fifo_mem_reg_0_21:RB 0.000e+00
*RC desiv_unit/fifo_mem_reg_1_15:RB 0.000e+00
*RC desiv_unit/fifo_mem_reg_0_15:RB 0.000e+00
*RC desiv_unit/fifo_mem_reg_0_3:RB 0.000e+00
*RC desiv_unit/fifo_mem_reg_0_23:RB 0.000e+00
*RC desiv_unit/fifo_mem_reg_1_19:RB 0.000e+00
*RC desiv_unit/fifo_mem_reg_1_1:RB 0.000e+00
*RC desiv_unit/fifo_mem_reg_1_11:RB 0.000e+00
*RC desiv_unit/fifo_mem_reg_1_10:RB 0.000e+00
*RC desiv_unit/fifo_mem_reg_0_29:RB 0.000e+00
*RC desiv_unit/fifo_mem_reg_0_27:RB 0.000e+00
*RC desiv_unit/fifo_mem_reg_0_26:RB 0.000e+00
*RC desiv_unit/fifo_mem_reg_0_13:RB 0.000e+00
*RC desiv_unit/fifo_mem_reg_1_27:RB 0.000e+00
*RC desiv_unit/fifo_mem_reg_1_26:RB 0.000e+00
*RC desiv_unit/fifo_mem_reg_0_12:RB 0.000e+00
*RC desiv_unit/fifo_mem_reg_0_28:RB 0.000e+00
*RC desiv_unit/fifo_mem_reg_1_0:RB 0.000e+00
*RC desiv_unit/fifo_mem_reg_1_18:RB 0.000e+00
*RC desiv_unit/fifo_mem_reg_0_5:RB 0.000e+00
*RC desiv_unit/fifo_mem_reg_0_4:RB 0.000e+00
*RC desiv_unit/fifo_mem_reg_0_22:RB 0.000e+00
*RC desiv_unit/fifo_mem_reg_0_2:RB 0.000e+00
*RC desiv_unit/fifo_mem_reg_0_14:RB 0.000e+00
*RC desiv_unit/fifo_mem_reg_1_14:RB 0.000e+00
*RC desiv_unit/fifo_mem_reg_0_20:RB 0.000e+00
*RC desiv_unit/fifo_mem_reg_1_2:RB 0.000e+00
*RC desiv_unit/fifo_mem_reg_1_24:RB 0.000e+00
*RC desiv_unit/fifo_mem_reg_0_8:RB 0.000e+00
*RC desiv_unit/fifo_mem_reg_1_20:RB 0.000e+00
*RC desiv_unit/fifo_mem_reg_0_24:RB 0.000e+00
*RC desiv_unit/fifo_mem_reg_1_6:RB 0.000e+00
*RC desiv_unit/fifo_mem_reg_1_8:RB 0.000e+00
*RC desiv_unit/fifo_mem_reg_1_30:RB 0.000e+00
*RC desiv_unit/fifo_mem_reg_1_28:RB 0.000e+00
*RC desiv_unit/fifo_mem_reg_1_4:RB 0.000e+00
*RC desiv_unit/fifo_mem_reg_1_22:RB 0.000e+00
*RC desiv_unit/fifo_mem_reg_0_16:RB 0.000e+00
*RC desiv_unit/fifo_mem_reg_1_16:RB 0.000e+00
*RC desiv_unit/fifo_mem_reg_0_6:RB 0.000e+00
*RC desiv_unit/fifo_mem_reg_1_12:RB 0.000e+00
*RC desiv_unit/fifo_mem_reg_0_18:RB 0.000e+00
*RC desiv_unit/fifo_mem_reg_0_0:RB 0.000e+00
*RC desiv_unit/fifo_mem_reg_0_10:RB 0.000e+00
*RC desiv_unit/fifo_mem_reg_0_30:RB 0.000e+00
*END

*R_NET hresetn 0.000e+00
*DRIVER hresetn
*CELL NULL
*C2_R1_C1 0.000e+00 0.000e+00 0.000e+00 
*LOADS
*RC u_des_spares_0/SPARE_UF03:RB 0.000e+00
*RC u_des_spares_0/SPARE_UF01:RB 0.000e+00
*RC des_cop_unit/des_unit/state_reg:RB 0.000e+00
*RC des_cop_unit/des_unit/round_reg_3:RB 0.000e+00
*RC des_cop_unit/des_unit/round_reg_2:RB 0.000e+00
*RC des_cop_unit/des_unit/round_reg_1:RB 0.000e+00
*RC des_cop_unit/des_unit/round_reg_0:RB 0.000e+00
*RC des_cop_unit/des_unit/dout_valid_reg:RB 0.000e+00
*RC des_cop_unit/flag_reg_1:RB 0.000e+00
*RC des_cop_unit/flag_reg_0:RB 0.000e+00
*RC des_cop_unit/din_valid_eins_reg:RB 0.000e+00
*RC desdat_unit/wr_ptr_reg:RB 0.000e+00
*RC desdat_unit/rd_ptr_reg:RB 0.000e+00
*RC desdat_unit/full_pulse_reg:RB 0.000e+00
*RC desdat_unit/full_delay_reg:RB 0.000e+00
*RC desdat_unit/full_reg:RB 0.000e+00
*RC desdat_unit/ptr_reg_1:RB 0.000e+00
*RC desdat_unit/ptr_reg_0:RB 0.000e+00
*RC desiv_unit/ptr_reg_0:RB 0.000e+00
*RC desiv_unit/wr_ptr_reg:RB 0.000e+00
*RC desiv_unit/ptr_reg_1:RB 0.000e+00
*RC nextiv_ready_en_reg:RB 0.000e+00
*RC desctrl_reg_0:RB 0.000e+00
*RC desctrl_reg_5:RB 0.000e+00
*RC desctrl_reg_4:RB 0.000e+00
*RC desctrl_reg_3:RB 0.000e+00
*RC desctrl_reg_2:RB 0.000e+00
*RC desctrl_reg_1:RB 0.000e+00
*RC desctrl_reg_6:RB 0.000e+00
*RC run_delay_reg:RB 0.000e+00
*RC desctrl_reg_7:RB 0.000e+00
*RC desdat_sel_reg:RB 0.000e+00
*RC desdat_sel_d1_reg:RB 0.000e+00
*RC deskey_sel_reg:RB 0.000e+00
*RC deskey_sel_d1_reg:RB 0.000e+00
*RC desiv_sel_reg:RB 0.000e+00
*RC desiv_sel_d1_reg:RB 0.000e+00
*RC hready_resp_reg:SB 0.000e+00
*RC desctrl_sel_reg:RB 0.000e+00
*RC desctrl_sel_d1_reg:RB 0.000e+00
*RC data_in_reg_24:RB 0.000e+00
*RC data_in_reg_16:RB 0.000e+00
*RC data_in_reg_8:RB 0.000e+00
*RC data_in_reg_0:RB 0.000e+00
*RC data_in_reg_31:RB 0.000e+00
*RC data_in_reg_30:RB 0.000e+00
*RC data_in_reg_29:RB 0.000e+00
*RC data_in_reg_28:RB 0.000e+00
*RC data_in_reg_27:RB 0.000e+00
*RC data_in_reg_26:RB 0.000e+00
*RC data_in_reg_25:RB 0.000e+00
*RC data_in_reg_23:RB 0.000e+00
*RC data_in_reg_22:RB 0.000e+00
*RC data_in_reg_21:RB 0.000e+00
*RC data_in_reg_20:RB 0.000e+00
*RC data_in_reg_19:RB 0.000e+00
*RC data_in_reg_18:RB 0.000e+00
*RC data_in_reg_17:RB 0.000e+00
*RC data_in_reg_15:RB 0.000e+00
*RC data_in_reg_14:RB 0.000e+00
*RC data_in_reg_13:RB 0.000e+00
*RC data_in_reg_12:RB 0.000e+00
*RC data_in_reg_11:RB 0.000e+00
*RC data_in_reg_10:RB 0.000e+00
*RC data_in_reg_9:RB 0.000e+00
*RC data_in_reg_7:RB 0.000e+00
*RC data_in_reg_6:RB 0.000e+00
*RC data_in_reg_5:RB 0.000e+00
*RC data_in_reg_4:RB 0.000e+00
*RC data_in_reg_3:RB 0.000e+00
*RC data_in_reg_2:RB 0.000e+00
*RC data_in_reg_1:RB 0.000e+00
*RC rw_reg:SB 0.000e+00
*RC hwrite_d1_reg:RB 0.000e+00
*RC deskey_unit/fifo_mem_reg_4_1:RB 0.000e+00
*RC deskey_unit/fifo_mem_reg_4_2:RB 0.000e+00
*RC deskey_unit/fifo_mem_reg_4_3:RB 0.000e+00
*RC deskey_unit/fifo_mem_reg_4_4:RB 0.000e+00
*RC deskey_unit/fifo_mem_reg_4_5:RB 0.000e+00
*RC deskey_unit/fifo_mem_reg_4_6:RB 0.000e+00
*RC deskey_unit/fifo_mem_reg_4_7:RB 0.000e+00
*RC deskey_unit/fifo_mem_reg_4_9:RB 0.000e+00
*RC deskey_unit/fifo_mem_reg_4_10:RB 0.000e+00
*RC deskey_unit/fifo_mem_reg_4_11:RB 0.000e+00
*RC deskey_unit/fifo_mem_reg_4_12:RB 0.000e+00
*RC deskey_unit/fifo_mem_reg_4_13:RB 0.000e+00
*RC deskey_unit/fifo_mem_reg_4_14:RB 0.000e+00
*RC deskey_unit/fifo_mem_reg_4_15:RB 0.000e+00
*RC deskey_unit/fifo_mem_reg_4_17:RB 0.000e+00
*RC deskey_unit/fifo_mem_reg_4_18:RB 0.000e+00
*RC deskey_unit/fifo_mem_reg_4_19:RB 0.000e+00
*RC deskey_unit/fifo_mem_reg_4_20:RB 0.000e+00
*RC deskey_unit/fifo_mem_reg_4_21:RB 0.000e+00
*RC deskey_unit/fifo_mem_reg_4_22:RB 0.000e+00
*RC deskey_unit/fifo_mem_reg_4_23:RB 0.000e+00
*RC deskey_unit/fifo_mem_reg_4_25:RB 0.000e+00
*RC deskey_unit/fifo_mem_reg_4_26:RB 0.000e+00
*RC deskey_unit/fifo_mem_reg_4_27:RB 0.000e+00
*RC deskey_unit/fifo_mem_reg_4_28:RB 0.000e+00
*RC deskey_unit/fifo_mem_reg_4_29:RB 0.000e+00
*RC deskey_unit/fifo_mem_reg_4_30:RB 0.000e+00
*RC deskey_unit/fifo_mem_reg_4_31:RB 0.000e+00
*RC deskey_unit/fifo_mem_reg_5_1:RB 0.000e+00
*RC deskey_unit/fifo_mem_reg_5_2:RB 0.000e+00
*RC deskey_unit/fifo_mem_reg_5_3:RB 0.000e+00
*RC deskey_unit/fifo_mem_reg_5_4:RB 0.000e+00
*RC deskey_unit/fifo_mem_reg_5_5:RB 0.000e+00
*RC deskey_unit/fifo_mem_reg_5_6:RB 0.000e+00
*RC deskey_unit/fifo_mem_reg_5_7:RB 0.000e+00
*RC deskey_unit/fifo_mem_reg_5_9:RB 0.000e+00
*RC deskey_unit/fifo_mem_reg_5_10:RB 0.000e+00
*RC deskey_unit/fifo_mem_reg_5_11:RB 0.000e+00
*RC deskey_unit/fifo_mem_reg_5_12:RB 0.000e+00
*RC deskey_unit/fifo_mem_reg_5_13:RB 0.000e+00
*RC deskey_unit/fifo_mem_reg_5_14:RB 0.000e+00
*RC deskey_unit/fifo_mem_reg_5_15:RB 0.000e+00
*RC deskey_unit/fifo_mem_reg_5_17:RB 0.000e+00
*RC deskey_unit/fifo_mem_reg_5_18:RB 0.000e+00
*RC deskey_unit/fifo_mem_reg_5_19:RB 0.000e+00
*RC deskey_unit/fifo_mem_reg_5_20:RB 0.000e+00
*RC deskey_unit/fifo_mem_reg_5_21:RB 0.000e+00
*RC deskey_unit/fifo_mem_reg_5_22:RB 0.000e+00
*RC deskey_unit/fifo_mem_reg_5_23:RB 0.000e+00
*RC deskey_unit/fifo_mem_reg_5_25:RB 0.000e+00
*RC deskey_unit/fifo_mem_reg_5_26:RB 0.000e+00
*RC deskey_unit/fifo_mem_reg_5_27:RB 0.000e+00
*RC deskey_unit/fifo_mem_reg_5_28:RB 0.000e+00
*RC deskey_unit/fifo_mem_reg_5_29:RB 0.000e+00
*RC deskey_unit/fifo_mem_reg_5_30:RB 0.000e+00
*RC deskey_unit/fifo_mem_reg_5_31:RB 0.000e+00
*RC deskey_unit/fifo_mem_reg_2_31:RB 0.000e+00
*RC deskey_unit/fifo_mem_reg_2_30:RB 0.000e+00
*RC deskey_unit/fifo_mem_reg_2_29:RB 0.000e+00
*RC deskey_unit/fifo_mem_reg_2_28:RB 0.000e+00
*RC deskey_unit/fifo_mem_reg_2_27:RB 0.000e+00
*RC deskey_unit/fifo_mem_reg_2_26:RB 0.000e+00
*RC deskey_unit/fifo_mem_reg_2_25:RB 0.000e+00
*RC deskey_unit/fifo_mem_reg_2_23:RB 0.000e+00
*RC deskey_unit/fifo_mem_reg_2_22:RB 0.000e+00
*RC deskey_unit/fifo_mem_reg_2_21:RB 0.000e+00
*RC deskey_unit/fifo_mem_reg_2_20:RB 0.000e+00
*RC deskey_unit/fifo_mem_reg_2_19:RB 0.000e+00
*RC deskey_unit/fifo_mem_reg_2_18:RB 0.000e+00
*RC deskey_unit/fifo_mem_reg_2_17:RB 0.000e+00
*RC deskey_unit/fifo_mem_reg_2_15:RB 0.000e+00
*RC deskey_unit/fifo_mem_reg_2_14:RB 0.000e+00
*RC deskey_unit/fifo_mem_reg_2_13:RB 0.000e+00
*RC deskey_unit/fifo_mem_reg_2_12:RB 0.000e+00
*RC deskey_unit/fifo_mem_reg_2_11:RB 0.000e+00
*RC deskey_unit/fifo_mem_reg_2_10:RB 0.000e+00
*RC deskey_unit/fifo_mem_reg_2_9:RB 0.000e+00
*RC deskey_unit/fifo_mem_reg_2_7:RB 0.000e+00
*RC deskey_unit/fifo_mem_reg_2_6:RB 0.000e+00
*RC deskey_unit/fifo_mem_reg_2_5:RB 0.000e+00
*RC deskey_unit/fifo_mem_reg_2_4:RB 0.000e+00
*RC deskey_unit/fifo_mem_reg_2_3:RB 0.000e+00
*RC deskey_unit/fifo_mem_reg_2_2:RB 0.000e+00
*RC deskey_unit/fifo_mem_reg_2_1:RB 0.000e+00
*RC deskey_unit/fifo_mem_reg_1_31:RB 0.000e+00
*RC deskey_unit/fifo_mem_reg_1_28:RB 0.000e+00
*RC deskey_unit/fifo_mem_reg_1_27:RB 0.000e+00
*RC deskey_unit/fifo_mem_reg_1_26:RB 0.000e+00
*RC deskey_unit/fifo_mem_reg_1_25:RB 0.000e+00
*RC deskey_unit/fifo_mem_reg_1_23:RB 0.000e+00
*RC deskey_unit/fifo_mem_reg_1_22:RB 0.000e+00
*RC deskey_unit/fifo_mem_reg_1_21:RB 0.000e+00
*RC deskey_unit/fifo_mem_reg_1_20:RB 0.000e+00
*RC deskey_unit/fifo_mem_reg_1_19:RB 0.000e+00
*RC deskey_unit/fifo_mem_reg_1_18:RB 0.000e+00
*RC deskey_unit/fifo_mem_reg_1_17:RB 0.000e+00
*RC deskey_unit/fifo_mem_reg_1_15:RB 0.000e+00
*RC deskey_unit/fifo_mem_reg_1_13:RB 0.000e+00
*RC deskey_unit/fifo_mem_reg_1_12:RB 0.000e+00
*RC deskey_unit/fifo_mem_reg_1_11:RB 0.000e+00
*RC deskey_unit/fifo_mem_reg_1_10:RB 0.000e+00
*RC deskey_unit/fifo_mem_reg_1_9:RB 0.000e+00
*RC deskey_unit/fifo_mem_reg_1_7:RB 0.000e+00
*RC deskey_unit/fifo_mem_reg_1_6:RB 0.000e+00
*RC deskey_unit/fifo_mem_reg_1_5:RB 0.000e+00
*RC deskey_unit/fifo_mem_reg_1_4:RB 0.000e+00
*RC deskey_unit/fifo_mem_reg_1_3:RB 0.000e+00
*RC deskey_unit/fifo_mem_reg_1_2:RB 0.000e+00
*RC deskey_unit/fifo_mem_reg_1_1:RB 0.000e+00
*RC deskey_unit/fifo_mem_reg_1_30:RB 0.000e+00
*RC deskey_unit/fifo_mem_reg_1_29:RB 0.000e+00
*RC deskey_unit/fifo_mem_reg_1_14:RB 0.000e+00
*RC deskey_unit/fifo_mem_reg_0_31:RB 0.000e+00
*RC deskey_unit/fifo_mem_reg_0_29:RB 0.000e+00
*RC deskey_unit/fifo_mem_reg_0_28:RB 0.000e+00
*RC deskey_unit/fifo_mem_reg_0_27:RB 0.000e+00
*RC deskey_unit/fifo_mem_reg_0_26:RB 0.000e+00
*RC deskey_unit/fifo_mem_reg_0_25:RB 0.000e+00
*RC deskey_unit/fifo_mem_reg_0_23:RB 0.000e+00
*RC deskey_unit/fifo_mem_reg_0_22:RB 0.000e+00
*RC deskey_unit/fifo_mem_reg_0_20:RB 0.000e+00
*RC deskey_unit/fifo_mem_reg_0_19:RB 0.000e+00
*RC deskey_unit/fifo_mem_reg_0_18:RB 0.000e+00
*RC deskey_unit/fifo_mem_reg_0_17:RB 0.000e+00
*RC deskey_unit/fifo_mem_reg_0_15:RB 0.000e+00
*RC deskey_unit/fifo_mem_reg_0_14:RB 0.000e+00
*RC deskey_unit/fifo_mem_reg_0_11:RB 0.000e+00
*RC deskey_unit/fifo_mem_reg_0_10:RB 0.000e+00
*RC deskey_unit/fifo_mem_reg_0_9:RB 0.000e+00
*RC deskey_unit/fifo_mem_reg_0_7:RB 0.000e+00
*RC deskey_unit/fifo_mem_reg_0_6:RB 0.000e+00
*RC deskey_unit/fifo_mem_reg_0_4:RB 0.000e+00
*RC deskey_unit/fifo_mem_reg_0_3:RB 0.000e+00
*RC deskey_unit/fifo_mem_reg_0_2:RB 0.000e+00
*RC deskey_unit/fifo_mem_reg_0_1:RB 0.000e+00
*RC deskey_unit/fifo_mem_reg_0_30:RB 0.000e+00
*RC deskey_unit/fifo_mem_reg_0_21:RB 0.000e+00
*RC deskey_unit/fifo_mem_reg_0_13:RB 0.000e+00
*RC deskey_unit/fifo_mem_reg_0_12:RB 0.000e+00
*RC deskey_unit/fifo_mem_reg_0_5:RB 0.000e+00
*RC deskey_unit/fifo_mem_reg_3_28:RB 0.000e+00
*RC deskey_unit/fifo_mem_reg_3_27:RB 0.000e+00
*RC deskey_unit/fifo_mem_reg_3_26:RB 0.000e+00
*RC deskey_unit/fifo_mem_reg_3_25:RB 0.000e+00
*RC deskey_unit/fifo_mem_reg_3_23:RB 0.000e+00
*RC deskey_unit/fifo_mem_reg_3_22:RB 0.000e+00
*RC deskey_unit/fifo_mem_reg_3_21:RB 0.000e+00
*RC deskey_unit/fifo_mem_reg_3_20:RB 0.000e+00
*RC deskey_unit/fifo_mem_reg_3_19:RB 0.000e+00
*RC deskey_unit/fifo_mem_reg_3_18:RB 0.000e+00
*RC deskey_unit/fifo_mem_reg_3_17:RB 0.000e+00
*RC deskey_unit/fifo_mem_reg_3_15:RB 0.000e+00
*RC deskey_unit/fifo_mem_reg_3_14:RB 0.000e+00
*RC deskey_unit/fifo_mem_reg_3_13:RB 0.000e+00
*RC deskey_unit/fifo_mem_reg_3_12:RB 0.000e+00
*RC deskey_unit/fifo_mem_reg_3_11:RB 0.000e+00
*RC deskey_unit/fifo_mem_reg_3_10:RB 0.000e+00
*RC deskey_unit/fifo_mem_reg_3_9:RB 0.000e+00
*RC deskey_unit/fifo_mem_reg_3_7:RB 0.000e+00
*RC deskey_unit/fifo_mem_reg_3_6:RB 0.000e+00